@<TRIPOS>MOLECULE
*****
   49    53     0     0     0
SMALL
NO_CHARGES

@<TRIPOS>ATOM
      1 C1         -2.0294    4.7243    2.8851 C.ar      1 <0>         0.0000
      2 C2          1.6296   -1.2255   -0.2259 C.ar      1 <0>         0.0000
      3 C3         -2.3417    3.3841    2.6617 C.ar      1 <0>         0.0000
      4 C4          0.5259   -0.6802    0.4285 C.ar      1 <0>         0.0000
      5 C5         -1.5487    5.1494    4.1295 C.ar      1 <0>         0.0000
      6 C6          3.7187   -3.0555   -1.4244 C.ar      1 <0>         0.0000
      7 C7          1.7212   -0.9889    2.5141 C.ar      1 <0>         0.0000
      8 C8          5.2179   -1.6250   -0.2410 C.ar      1 <0>         0.0000
      9 C9         -1.6770    2.8507    4.9253 C.ar      1 <0>         0.0000
     10 C10         4.7981   -3.4189   -2.2309 C.ar      1 <0>         0.0000
     11 C11         2.7881   -1.6533    0.4439 C.ar      1 <0>         0.0000
     12 C12         3.9204   -2.1307   -0.3904 C.ar      1 <0>         0.0000
     13 C13         2.8299   -1.5549    1.8602 C.ar      1 <0>         0.0000
     14 C14        -2.1720    2.4344    3.6835 C.ar      1 <0>         0.0000
     15 C15         0.5888   -0.5531    1.8239 C.ar      1 <0>         0.0000
     16 C16        -1.3807    4.1992    5.1348 C.ar      1 <0>         0.0000
     17 C17         6.2414   -2.0498   -1.0912 C.ar      1 <0>         0.0000
     18 C18         3.9242   -2.0366    2.7103 C.2       1 <0>         0.0000
     19 C19        -1.6992    0.4221    2.2336 C.2       1 <0>         0.0000
     20 C20        -2.9263    0.0541    4.5077 C.3       1 <0>         0.0000
     21 C21        -3.9401    0.5442    3.4946 C.3       1 <0>         0.0000
     22 C22        -2.5039    0.9969    3.4000 C.3       1 <0>         0.0000
     23 C23         7.6571   -1.5617   -0.9010 C.3       1 <0>         0.0000
     24 N1          5.1286   -2.3156    4.4476 N.2       1 <0>         0.0000
     25 N2          6.0389   -2.9369   -2.0871 N.ar      1 <0>         0.0000
     26 N3          4.0700   -1.6310    3.9934 N.2       1 <0>         0.0000
     27 N4          4.8540   -2.9539    2.3720 N.2       1 <0>         0.0000
     28 N5          5.5947   -3.1109    3.4802 N.2       1 <0>         0.0000
     29 N6         -0.4581    0.0013    2.6063 N.am      1 <0>         0.0000
     30 O1         -2.1510    0.3915    1.0877 O.2       1 <0>         0.0000
     31 Cl1        -0.7743    4.7075    6.7087 Cl        1 <0>         0.0000
     32 H1         -2.1583    5.4519    2.0879 H         1 <0>         0.0000
     33 H2          1.6075   -1.2911   -1.3108 H         1 <0>         0.0000
     34 H3         -2.7084    3.0554    1.6935 H         1 <0>         0.0000
     35 H4         -0.3494   -0.3534   -0.1158 H         1 <0>         0.0000
     36 H5         -1.3055    6.1912    4.3128 H         1 <0>         0.0000
     37 H6          2.7422   -3.5050   -1.5840 H         1 <0>         0.0000
     38 H7          1.7740   -0.9158    3.5977 H         1 <0>         0.0000
     39 H8          5.4348   -0.9179    0.5519 H         1 <0>         0.0000
     40 H9         -1.5148    2.1352    5.7247 H         1 <0>         0.0000
     41 H10         4.6570   -4.1415   -3.0357 H         1 <0>         0.0000
     42 H11        -2.9942    0.4387    5.5212 H         1 <0>         0.0000
     43 H12        -2.6005   -0.9800    4.4401 H         1 <0>         0.0000
     44 H13        -4.2861   -0.1436    2.7296 H         1 <0>         0.0000
     45 H14        -4.6692    1.2782    3.8247 H         1 <0>         0.0000
     46 H15         8.2296   -2.3006   -0.3276 H         1 <0>         0.0000
     47 H16         8.1509   -1.4330   -1.8685 H         1 <0>         0.0000
     48 H17         7.6878   -0.6184   -0.3483 H         1 <0>         0.0000
     49 H18        -0.2466    0.0851    3.5935 H         1 <0>         0.0000
@<TRIPOS>BOND
     1    1    3 ar
     2    1    5 ar
     3    1   32 1
     4    2    4 ar
     5    2   11 ar
     6    2   33 1
     7    3   14 ar
     8    3   34 1
     9    4   15 ar
    10    4   35 1
    11    5   16 ar
    12    5   36 1
    13    6   10 ar
    14    6   12 ar
    15    6   37 1
    16    7   13 ar
    17    7   15 ar
    18    7   38 1
    19    8   12 ar
    20    8   17 ar
    21    8   39 1
    22    9   14 ar
    23    9   16 ar
    24    9   40 1
    25   10   25 ar
    26   10   41 1
    27   11   12 1
    28   11   13 ar
    29   13   18 1
    30   14   22 1
    31   15   29 1
    32   16   31 1
    33   17   23 1
    34   17   25 ar
    35   18   26 2
    36   18   27 1
    37   19   22 1
    38   19   29 am
    39   19   30 2
    40   20   21 1
    41   20   22 1
    42   20   42 1
    43   20   43 1
    44   21   22 1
    45   21   44 1
    46   21   45 1
    47   23   46 1
    48   23   47 1
    49   23   48 1
    50   24   26 1
    51   24   28 1
    52   27   28 2
    53   29   49 1
