@<TRIPOS>MOLECULE
*****
   29    30     0     0     0
SMALL
NO_CHARGES

@<TRIPOS>ATOM
      1 C1         -4.0621   -1.6849   -4.1258 C.ar      1 <0>         0.0000
      2 C2         -4.8176    0.3108   -4.9376 C.ar      1 <0>         0.0000
      3 C3         -3.1979   -1.0097   -3.2594 C.ar      1 <0>         0.0000
      4 C4         -3.9436    0.9769   -4.0612 C.ar      1 <0>         0.0000
      5 C5         -2.2997   -1.7869   -2.3274 C.2       1 <0>         0.0000
      6 C6          0.8481   -0.9514   -0.6693 C.3       1 <0>         0.0000
      7 C7         -0.6452   -0.8704    0.8178 C.3       1 <0>         0.0000
      8 C8         -0.5813   -1.5483   -0.5769 C.3       1 <0>         0.0000
      9 C9          1.4952    0.2952    1.4280 C.3       1 <0>         0.0000
     10 C10         2.5345    1.2495    0.8574 C.3       1 <0>         0.0000
     11 N1         -4.8715   -1.0209   -4.9644 N.ar      1 <0>         0.0000
     12 N2         -3.1438    0.3334   -3.2329 N.ar      1 <0>         0.0000
     13 N3          0.4933   -0.0082    0.4212 N.3       1 <0>         0.0000
     14 N4         -1.5137   -1.0092   -1.5402 N.am      1 <0>         0.0000
     15 O1         -2.3160   -3.0193   -2.3192 O.2       1 <0>         0.0000
     16 F1          3.5151    1.5058    1.8287 F         1 <0>         0.0000
     17 Cl1        -3.8999    2.7267   -4.0536 Cl        1 <0>         0.0000
     18 H1         -4.0913   -2.7697   -4.1326 H         1 <0>         0.0000
     19 H2         -5.4670    0.8647   -5.6107 H         1 <0>         0.0000
     20 H3          1.6152   -1.6860   -0.3748 H         1 <0>         0.0000
     21 H4          1.1324   -0.4855   -1.6185 H         1 <0>         0.0000
     22 H5         -1.5646   -0.3340    1.0750 H         1 <0>         0.0000
     23 H6         -0.3950   -1.5801    1.6220 H         1 <0>         0.0000
     24 H7         -0.6664   -2.6324   -0.6052 H         1 <0>         0.0000
     25 H8          1.0021    0.7745    2.2808 H         1 <0>         0.0000
     26 H9          2.0020   -0.6138    1.8026 H         1 <0>         0.0000
     27 H10         2.0792    2.2030    0.5756 H         1 <0>         0.0000
     28 H11         3.0423    0.8189   -0.0124 H         1 <0>         0.0000
     29 H12        -1.5968   -0.0030   -1.6488 H         1 <0>         0.0000
@<TRIPOS>BOND
     1    1    3 ar
     2    1   11 ar
     3    1   18 1
     4    2    4 ar
     5    2   11 ar
     6    2   19 1
     7    3    5 1
     8    3   12 ar
     9    4   12 ar
    10    4   17 1
    11    5   14 am
    12    5   15 2
    13    6    8 1
    14    6   13 1
    15    6   20 1
    16    6   21 1
    17    7    8 1
    18    7   13 1
    19    7   22 1
    20    7   23 1
    21    8   14 1
    22    8   24 1
    23    9   10 1
    24    9   13 1
    25    9   25 1
    26    9   26 1
    27   10   16 1
    28   10   27 1
    29   10   28 1
    30   14   29 1
