@<TRIPOS>MOLECULE
*****
   36    38     0     0     0
SMALL
NO_CHARGES

@<TRIPOS>ATOM
      1 C1         -4.8977   -0.5334   -4.9723 C.ar      1 <0>         0.0000
      2 C2         -6.9064   -1.7913   -5.1695 C.ar      1 <0>         0.0000
      3 C3         -6.1701   -0.6595   -5.5385 C.ar      1 <0>         0.0000
      4 C4         -4.4106   -1.5001   -4.0894 C.ar      1 <0>         0.0000
      5 C5         -5.2399   -2.6021   -3.7923 C.ar      1 <0>         0.0000
      6 C6         -2.7038    1.5474   -1.1606 C.3       1 <0>         0.0000
      7 C7         -3.0623    0.1530   -0.6654 C.3       1 <0>         0.0000
      8 C8         -5.0418   -5.1080   -3.2260 C.3       1 <0>         0.0000
      9 C9         -3.6338   -4.5501   -3.1664 C.3       1 <0>         0.0000
     10 C10        -3.3950    0.5875   -2.0846 C.3       1 <0>         0.0000
     11 C11        -4.8227   -3.6739   -2.8175 C.3       1 <0>         0.0000
     12 C12        -6.7225    0.3683   -6.4962 C.3       1 <0>         0.0000
     13 C13        -5.0641   -3.3076   -1.3592 C.3       1 <0>         0.0000
     14 C14        -3.0129   -1.3458   -3.5112 C.3       1 <0>         0.0000
     15 N1         -6.4651   -2.7321   -4.3273 N.ar      1 <0>         0.0000
     16 N2         -2.6937    0.0615   -3.2345 N.3       1 <0>         0.0000
     17 H1         -4.2711    0.3268   -5.1974 H         1 <0>         0.0000
     18 H2         -7.9075   -1.9455   -5.5739 H         1 <0>         0.0000
     19 H3         -3.2642    2.3966   -0.7808 H         1 <0>         0.0000
     20 H4         -1.6526    1.7578   -1.3446 H         1 <0>         0.0000
     21 H5         -2.2452   -0.5525   -0.5357 H         1 <0>         0.0000
     22 H6         -3.8675    0.0505    0.0572 H         1 <0>         0.0000
     23 H7         -5.4830   -5.2864   -4.2011 H         1 <0>         0.0000
     24 H8         -5.3482   -5.8100   -2.4552 H         1 <0>         0.0000
     25 H9         -2.9810   -4.8682   -2.3570 H         1 <0>         0.0000
     26 H10        -3.1246   -4.3699   -4.1095 H         1 <0>         0.0000
     27 H11        -4.4456    0.7805   -2.2869 H         1 <0>         0.0000
     28 H12        -6.1068    0.4400   -7.3998 H         1 <0>         0.0000
     29 H13        -7.7411    0.1157   -6.8046 H         1 <0>         0.0000
     30 H14        -6.7463    1.3639   -6.0395 H         1 <0>         0.0000
     31 H15        -4.7338   -4.1133   -0.6943 H         1 <0>         0.0000
     32 H16        -6.1326   -3.1396   -1.1860 H         1 <0>         0.0000
     33 H17        -4.5289   -2.3943   -1.0776 H         1 <0>         0.0000
     34 H18        -2.9049   -1.9775   -2.6219 H         1 <0>         0.0000
     35 H19        -2.2858   -1.7100   -4.2485 H         1 <0>         0.0000
     36 H20        -1.6903    0.1625   -3.1048 H         1 <0>         0.0000
@<TRIPOS>BOND
     1    1    3 ar
     2    1    4 ar
     3    1   17 1
     4    2    3 ar
     5    2   15 ar
     6    2   18 1
     7    3   12 1
     8    4    5 ar
     9    4   14 1
    10    5   11 1
    11    5   15 ar
    12    6    7 1
    13    6   10 1
    14    6   19 1
    15    6   20 1
    16    7   10 1
    17    7   21 1
    18    7   22 1
    19    8    9 1
    20    8   11 1
    21    8   23 1
    22    8   24 1
    23    9   11 1
    24    9   25 1
    25    9   26 1
    26   10   16 1
    27   10   27 1
    28   11   13 1
    29   12   28 1
    30   12   29 1
    31   12   30 1
    32   13   31 1
    33   13   32 1
    34   13   33 1
    35   14   16 1
    36   14   34 1
    37   14   35 1
    38   16   36 1
