@<TRIPOS>MOLECULE
*****
   42    45     0     0     0
SMALL
NO_CHARGES

@<TRIPOS>ATOM
      1 C1          7.0002    1.8240   -1.1730 C.ar      1 <0>         0.0000
      2 C2          5.8728    2.0611   -1.9625 C.ar      1 <0>         0.0000
      3 C3          6.8685    1.2878    0.1072 C.ar      1 <0>         0.0000
      4 C4          2.5897    1.6275    1.4745 C.ar      1 <0>         0.0000
      5 C5          4.4427    1.2306   -0.1653 C.ar      1 <0>         0.0000
      6 C6          0.5997    0.3089    1.3495 C.ar      1 <0>         0.0000
      7 C7          1.3248    1.3152    1.9938 C.ar      1 <0>         0.0000
      8 C8          4.6018    1.7656   -1.4563 C.ar      1 <0>         0.0000
      9 C9          5.5952    0.9897    0.6031 C.ar      1 <0>         0.0000
     10 C10         3.0821    0.9394    0.3616 C.ar      1 <0>         0.0000
     11 C11         1.1736   -0.2995    0.2270 C.ar      1 <0>         0.0000
     12 C12        -0.9625   -1.3486   -0.3651 C.2       1 <0>         0.0000
     13 C13        -0.7337   -0.2348    1.7731 C.3       1 <0>         0.0000
     14 C14         5.3047   -2.1872   -0.1883 C.3       1 <0>         0.0000
     15 C15         5.0791   -3.1927    0.9174 C.3       1 <0>         0.0000
     16 C16         5.7596   -1.8723    1.2215 C.3       1 <0>         0.0000
     17 C17         0.7824    2.0248    3.2098 C.3       1 <0>         0.0000
     18 C18         5.0191   -0.8571    2.0501 C.3       1 <0>         0.0000
     19 N1          2.3764   -0.0216   -0.2664 N.ar      1 <0>         0.0000
     20 N2          0.4256   -1.2957   -0.4148 N.am      1 <0>         0.0000
     21 O1         -1.6311   -1.9662   -1.1657 O.2       1 <0>         0.0000
     22 O2         -1.5406   -0.6360    0.6396 O.3       1 <0>         0.0000
     23 O3          3.4610    2.0183   -2.1750 O.3       1 <0>         0.0000
     24 O4          5.5157    0.4943    1.8881 O.3       1 <0>         0.0000
     25 H1          7.9871    2.0549   -1.5651 H         1 <0>         0.0000
     26 H2          5.9768    2.4808   -2.9614 H         1 <0>         0.0000
     27 H3          7.7318    1.0827    0.7319 H         1 <0>         0.0000
     28 H4          3.2060    2.3883    1.9418 H         1 <0>         0.0000
     29 H5         -0.6129   -1.1092    2.4276 H         1 <0>         0.0000
     30 H6         -1.3390    0.5042    2.2988 H         1 <0>         0.0000
     31 H7          6.0730   -2.3969   -0.9265 H         1 <0>         0.0000
     32 H8          4.4396   -1.6545   -0.5706 H         1 <0>         0.0000
     33 H9          4.0610   -3.3305    1.2730 H         1 <0>         0.0000
     34 H10         5.6861   -4.0928    0.9388 H         1 <0>         0.0000
     35 H11         6.8308   -1.9123    1.4063 H         1 <0>         0.0000
     36 H12        -0.1554    2.5429    2.9794 H         1 <0>         0.0000
     37 H13         0.5741    1.3213    4.0233 H         1 <0>         0.0000
     38 H14         1.4936    2.7659    3.5808 H         1 <0>         0.0000
     39 H15         5.1505   -1.0507    3.1182 H         1 <0>         0.0000
     40 H16         3.9476   -0.8965    1.8273 H         1 <0>         0.0000
     41 H17         0.8335   -1.6954   -1.2536 H         1 <0>         0.0000
     42 H18         3.7098    2.4005   -3.0312 H         1 <0>         0.0000
@<TRIPOS>BOND
     1    1    2 ar
     2    1    3 ar
     3    1   25 1
     4    2    8 ar
     5    2   26 1
     6    3    9 ar
     7    3   27 1
     8    4    7 ar
     9    4   10 ar
    10    4   28 1
    11    5    8 ar
    12    5    9 ar
    13    5   10 1
    14    6    7 ar
    15    6   11 ar
    16    6   13 1
    17    7   17 1
    18    8   23 1
    19    9   24 1
    20   10   19 ar
    21   11   19 ar
    22   11   20 1
    23   12   20 am
    24   12   21 2
    25   12   22 1
    26   13   22 1
    27   13   29 1
    28   13   30 1
    29   14   15 1
    30   14   16 1
    31   14   31 1
    32   14   32 1
    33   15   16 1
    34   15   33 1
    35   15   34 1
    36   16   18 1
    37   16   35 1
    38   17   36 1
    39   17   37 1
    40   17   38 1
    41   18   24 1
    42   18   39 1
    43   18   40 1
    44   20   41 1
    45   23   42 1
