@<TRIPOS>MOLECULE
*****
   40    41     0     0     0
SMALL
NO_CHARGES

@<TRIPOS>ATOM
      1 C1          4.9490    0.0180    5.4546 C.ar      1 <0>         0.0000
      2 C2          4.5447    0.5502    4.2274 C.ar      1 <0>         0.0000
      3 C3          2.9850   -1.3791    5.4938 C.ar      1 <0>         0.0000
      4 C4          4.1773   -0.9581    6.0940 C.ar      1 <0>         0.0000
      5 C5          3.3513    0.1340    3.6331 C.ar      1 <0>         0.0000
      6 C6          2.5594   -0.8340    4.2813 C.ar      1 <0>         0.0000
      7 C7         -0.5418    0.9392    2.8165 C.3       1 <0>         0.0000
      8 C8         -1.0701   -0.4331    2.3022 C.3       1 <0>         0.0000
      9 C9         -0.0331    0.6864    4.2578 C.3       1 <0>         0.0000
     10 C10        -0.9846   -1.3898    3.5125 C.3       1 <0>         0.0000
     11 C11         0.1623   -0.8304    4.3500 C.3       1 <0>         0.0000
     12 C12         6.5762   -2.9011    6.2628 C.3       1 <0>         0.0000
     13 C13         2.8803   -0.1292    1.3200 C.3       1 <0>         0.0000
     14 C14         5.3157   -2.9713    7.1300 C.3       1 <0>         0.0000
     15 C15         4.6502   -1.6047    7.3771 C.3       1 <0>         0.0000
     16 O1          3.5105   -1.7493    8.2407 O.3       1 <0>         0.0000
     17 O2          1.3872   -1.2518    3.6889 O.3       1 <0>         0.0000
     18 O3          2.9475    0.7384    2.4617 O.3       1 <0>         0.0000
     19 H1          5.8733    0.3640    5.9112 H         1 <0>         0.0000
     20 H2          5.1339    1.3097    3.7211 H         1 <0>         0.0000
     21 H3          2.3683   -2.1257    5.9850 H         1 <0>         0.0000
     22 H4          0.2747    1.3000    2.1879 H         1 <0>         0.0000
     23 H5         -1.3231    1.7050    2.8043 H         1 <0>         0.0000
     24 H6         -2.0884   -0.3684    1.9073 H         1 <0>         0.0000
     25 H7         -0.4349   -0.8038    1.4929 H         1 <0>         0.0000
     26 H8          0.8799    1.2377    4.4949 H         1 <0>         0.0000
     27 H9         -0.7891    0.9759    4.9973 H         1 <0>         0.0000
     28 H10        -1.9026   -1.3432    4.1097 H         1 <0>         0.0000
     29 H11        -0.8150   -2.4338    3.2353 H         1 <0>         0.0000
     30 H12         0.1737   -1.2004    5.3814 H         1 <0>         0.0000
     31 H13         6.3468   -2.5308    5.2597 H         1 <0>         0.0000
     32 H14         7.3250   -2.2321    6.7029 H         1 <0>         0.0000
     33 H15         7.0331   -3.8908    6.1627 H         1 <0>         0.0000
     34 H16         2.5775    0.4994    0.4798 H         1 <0>         0.0000
     35 H17         2.1484   -0.9265    1.4725 H         1 <0>         0.0000
     36 H18         3.8668   -0.5636    1.1133 H         1 <0>         0.0000
     37 H19         5.5732   -3.4070    8.1066 H         1 <0>         0.0000
     38 H20         4.5739   -3.6342    6.6699 H         1 <0>         0.0000
     39 H21         5.3879   -0.9386    7.8502 H         1 <0>         0.0000
     40 H22         3.7847   -2.2830    9.0034 H         1 <0>         0.0000
@<TRIPOS>BOND
     1    1    2 ar
     2    1    4 ar
     3    1   19 1
     4    2    5 ar
     5    2   20 1
     6    3    4 ar
     7    3    6 ar
     8    3   21 1
     9    4   15 1
    10    5    6 ar
    11    5   18 1
    12    6   17 1
    13    7    8 1
    14    7    9 1
    15    7   22 1
    16    7   23 1
    17    8   10 1
    18    8   24 1
    19    8   25 1
    20    9   11 1
    21    9   26 1
    22    9   27 1
    23   10   11 1
    24   10   28 1
    25   10   29 1
    26   11   17 1
    27   11   30 1
    28   12   14 1
    29   12   31 1
    30   12   32 1
    31   12   33 1
    32   13   18 1
    33   13   34 1
    34   13   35 1
    35   13   36 1
    36   14   15 1
    37   14   37 1
    38   14   38 1
    39   15   16 1
    40   15   39 1
    41   16   40 1
