@<TRIPOS>MOLECULE
*****
   40    41     0     0     0
SMALL
NO_CHARGES

@<TRIPOS>ATOM
      1 C1          2.3026   -3.1950    0.7469 C.ar      1 <0>         0.0000
      2 C2          1.3797   -2.9269   -0.2649 C.ar      1 <0>         0.0000
      3 C3          2.6439   -2.1782    1.6451 C.ar      1 <0>         0.0000
      4 C4          0.8073   -1.6557   -0.3934 C.ar      1 <0>         0.0000
      5 C5         -0.5374    1.1307    4.2495 C.2       1 <0>         0.0000
      6 C6          0.2173    0.1437    3.6601 C.2       1 <0>         0.0000
      7 C7          1.2266    2.1094    3.5096 C.2       1 <0>         0.0000
      8 C8          2.0821   -0.9017    1.5431 C.ar      1 <0>         0.0000
      9 C9          1.1598   -0.6373    0.5018 C.ar      1 <0>         0.0000
     10 C10         3.7110    0.5286    2.7628 C.2       1 <0>         0.0000
     11 C11         2.4456    0.1604    2.5134 C.2       1 <0>         0.0000
     12 C12        -0.3215    3.4238   -1.0055 C.2       1 <0>         0.0000
     13 C13        -0.7667    2.3817   -0.2737 C.2       1 <0>         0.0000
     14 C14         0.7241    3.3159   -2.0946 C.3       1 <0>         0.0000
     15 C15        -0.8038    4.8427   -0.7997 C.3       1 <0>         0.0000
     16 C16        -1.7273    2.4872    0.8904 C.3       1 <0>         0.0000
     17 C17        -0.3175    0.9680   -0.5372 C.3       1 <0>         0.0000
     18 N1          0.0979    2.3557    4.1422 N.2       1 <0>         0.0000
     19 N2          1.3620    0.7760    3.1971 N.pl3     1 <0>         0.0000
     20 O1          0.6999    0.6400    0.4335 O.3       1 <0>         0.0000
     21 H1          2.7429   -4.1828    0.8454 H         1 <0>         0.0000
     22 H2          1.0977   -3.7078   -0.9666 H         1 <0>         0.0000
     23 H3          3.3404   -2.3734    2.4560 H         1 <0>         0.0000
     24 H4          0.1052   -1.4658   -1.1968 H         1 <0>         0.0000
     25 H5         -1.4973    1.0323    4.7401 H         1 <0>         0.0000
     26 H6          0.0696   -0.9192    3.5382 H         1 <0>         0.0000
     27 H7          1.9644    2.8405    3.2078 H         1 <0>         0.0000
     28 H8          3.9537    1.2491    3.5380 H         1 <0>         0.0000
     29 H9          4.5238    0.1159    2.1753 H         1 <0>         0.0000
     30 H10         0.2788    3.4810   -3.0846 H         1 <0>         0.0000
     31 H11         1.2534    2.3627   -2.1102 H         1 <0>         0.0000
     32 H12         1.4767    4.1021   -1.9581 H         1 <0>         0.0000
     33 H13        -0.0374    5.4412   -0.2896 H         1 <0>         0.0000
     34 H14        -1.7251    4.9096   -0.2206 H         1 <0>         0.0000
     35 H15        -0.9819    5.3234   -1.7693 H         1 <0>         0.0000
     36 H16        -2.7342    2.1529    0.6046 H         1 <0>         0.0000
     37 H17        -1.3911    1.8406    1.7062 H         1 <0>         0.0000
     38 H18        -1.8054    3.4947    1.2986 H         1 <0>         0.0000
     39 H19        -1.1629    0.2797   -0.4049 H         1 <0>         0.0000
     40 H20         0.0820    0.8240   -1.5443 H         1 <0>         0.0000
@<TRIPOS>BOND
     1    1    2 ar
     2    1    3 ar
     3    1   21 1
     4    2    4 ar
     5    2   22 1
     6    3    8 ar
     7    3   23 1
     8    4    9 ar
     9    4   24 1
    10    5    6 2
    11    5   18 1
    12    5   25 1
    13    6   19 1
    14    6   26 1
    15    7   18 2
    16    7   19 1
    17    7   27 1
    18    8    9 ar
    19    8   11 1
    20    9   20 1
    21   10   11 2
    22   10   28 1
    23   10   29 1
    24   11   19 1
    25   12   13 2
    26   12   14 1
    27   12   15 1
    28   13   16 1
    29   13   17 1
    30   14   30 1
    31   14   31 1
    32   14   32 1
    33   15   33 1
    34   15   34 1
    35   15   35 1
    36   16   36 1
    37   16   37 1
    38   16   38 1
    39   17   20 1
    40   17   39 1
    41   17   40 1
