@<TRIPOS>MOLECULE
*****
   36    38     0     0     0
SMALL
NO_CHARGES

@<TRIPOS>ATOM
      1 C1         -5.3374   -0.7799   -4.1948 C.ar      1 <0>         0.0000
      2 C2         -7.1233   -2.1582   -4.9338 C.ar      1 <0>         0.0000
      3 C3         -6.5138   -0.8992   -4.9415 C.ar      1 <0>         0.0000
      4 C4         -4.8115   -1.8701   -3.4998 C.ar      1 <0>         0.0000
      5 C5         -5.5226   -3.0898   -3.5515 C.ar      1 <0>         0.0000
      6 C6         -2.6457   -1.2942   -6.0091 C.3       1 <0>         0.0000
      7 C7         -1.1657   -1.5099   -5.7736 C.3       1 <0>         0.0000
      8 C8         -5.0543   -5.6247   -3.4720 C.3       1 <0>         0.0000
      9 C9         -3.7698   -4.9559   -3.0274 C.3       1 <0>         0.0000
     10 C10        -2.0560   -1.0722   -4.6347 C.3       1 <0>         0.0000
     11 C11        -5.1091   -4.2998   -2.7530 C.3       1 <0>         0.0000
     12 C12        -7.0894    0.2605   -5.7166 C.3       1 <0>         0.0000
     13 C13        -5.6435   -4.2902   -1.3270 C.3       1 <0>         0.0000
     14 C14        -3.4999   -1.7154   -2.7582 C.3       1 <0>         0.0000
     15 N1         -6.6578   -3.2153   -4.2581 N.ar      1 <0>         0.0000
     16 N2         -2.3417   -2.0453   -3.6097 N.3       1 <0>         0.0000
     17 H1         -4.8125    0.1738   -4.1633 H         1 <0>         0.0000
     18 H2         -8.0422   -2.3210   -5.4986 H         1 <0>         0.0000
     19 H3         -2.9593   -0.4244   -6.5794 H         1 <0>         0.0000
     20 H4         -3.2684   -2.1740   -6.1288 H         1 <0>         0.0000
     21 H5         -0.8104   -2.5356   -5.7465 H         1 <0>         0.0000
     22 H6         -0.4636   -0.7882   -6.1805 H         1 <0>         0.0000
     23 H7         -5.2921   -5.6266   -4.5308 H         1 <0>         0.0000
     24 H8         -5.3936   -6.5045   -2.9316 H         1 <0>         0.0000
     25 H9         -3.2366   -5.3781   -2.1782 H         1 <0>         0.0000
     26 H10        -3.1335   -4.5032   -3.7800 H         1 <0>         0.0000
     27 H11        -1.9601   -0.0281   -4.3157 H         1 <0>         0.0000
     28 H12        -6.3861    0.6167   -6.4780 H         1 <0>         0.0000
     29 H13        -8.0157   -0.0231   -6.2244 H         1 <0>         0.0000
     30 H14        -7.3137    1.1075   -5.0586 H         1 <0>         0.0000
     31 H15        -5.3323   -5.1917   -0.7881 H         1 <0>         0.0000
     32 H16        -6.7383   -4.2553   -1.3310 H         1 <0>         0.0000
     33 H17        -5.2815   -3.4207   -0.7652 H         1 <0>         0.0000
     34 H18        -3.4380   -0.6848   -2.3670 H         1 <0>         0.0000
     35 H19        -3.4704   -2.3899   -1.9004 H         1 <0>         0.0000
     36 H20        -1.5221   -2.1581   -3.0163 H         1 <0>         0.0000
@<TRIPOS>BOND
     1    1    3 ar
     2    1    4 ar
     3    1   17 1
     4    2    3 ar
     5    2   15 ar
     6    2   18 1
     7    3   12 1
     8    4    5 ar
     9    4   14 1
    10    5   11 1
    11    5   15 ar
    12    6    7 1
    13    6   10 1
    14    6   19 1
    15    6   20 1
    16    7   10 1
    17    7   21 1
    18    7   22 1
    19    8    9 1
    20    8   11 1
    21    8   23 1
    22    8   24 1
    23    9   11 1
    24    9   25 1
    25    9   26 1
    26   10   16 1
    27   10   27 1
    28   11   13 1
    29   12   28 1
    30   12   29 1
    31   12   30 1
    32   13   31 1
    33   13   32 1
    34   13   33 1
    35   14   16 1
    36   14   34 1
    37   14   35 1
    38   16   36 1
