@<TRIPOS>MOLECULE
*****
   68    70     0     0     0
SMALL
NO_CHARGES

@<TRIPOS>ATOM
      1 C1        -10.0031   -2.4082    8.5874 C.1       1 <0>         0.0000
      2 C2         -7.9665   -3.3930    9.4940 C.ar      1 <0>         0.0000
      3 C3         -6.5809   -3.5286    9.5328 C.ar      1 <0>         0.0000
      4 C4         -6.3747   -1.8572    7.7863 C.ar      1 <0>         0.0000
      5 C5         -8.5694   -2.5001    8.5958 C.ar      1 <0>         0.0000
      6 C6         -7.7576   -1.7269    7.7391 C.ar      1 <0>         0.0000
      7 C7         -5.7887   -2.7651    8.6745 C.ar      1 <0>         0.0000
      8 C8         -3.6487   -2.7951    9.9191 C.2       1 <0>         0.0000
      9 C9         -3.5236   -3.1318    7.6219 C.2       1 <0>         0.0000
     10 C10         4.1183   -0.7025    0.3213 C.2       1 <0>         0.0000
     11 C11         4.0714   -0.3959    2.7587 C.3       1 <0>         0.0000
     12 C12         2.9735   -2.3705    1.8380 C.3       1 <0>         0.0000
     13 C13         2.8270   -0.1224    3.5996 C.3       1 <0>         0.0000
     14 C14         1.7485   -2.0671    2.7031 C.3       1 <0>         0.0000
     15 C15        -2.1760   -2.9778    9.5531 C.3       1 <0>         0.0000
     16 C16        -1.6412   -4.2386   10.2531 C.3       1 <0>         0.0000
     17 C17        -1.3811   -1.7281    9.9565 C.3       1 <0>         0.0000
     18 C18         3.8292   -1.8082   -3.4151 C.3       1 <0>         0.0000
     19 C19         3.7235   -1.5461   -0.8918 C.3       1 <0>         0.0000
     20 C20         4.2353   -0.9562   -2.2081 C.3       1 <0>         0.0000
     21 C21        -0.6386   -2.0996    6.5042 C.3       1 <0>         0.0000
     22 C22         0.4996   -2.4001    5.5244 C.3       1 <0>         0.0000
     23 C23        -1.0924   -3.3654    7.2402 C.3       1 <0>         0.0000
     24 C24         0.9962   -1.1343    4.8199 C.3       1 <0>         0.0000
     25 C25        -8.3839   -0.7501    6.7686 C.3       1 <0>         0.0000
     26 N1        -11.1665   -2.3683    8.6158 N.1       1 <0>         0.0000
     27 N2         -4.3730   -2.8896    8.7329 N.am      1 <0>         0.0000
     28 N3         -2.2565   -3.1496    8.0956 N.pl3     1 <0>         0.0000
     29 N4          3.7156   -1.1479    1.5581 N.am      1 <0>         0.0000
     30 N5          2.1370   -1.3738    3.9332 N.3       1 <0>         0.0000
     31 O1         -4.1002   -2.6107   11.0327 O.2       1 <0>         0.0000
     32 O2          4.7682    0.3374    0.1915 O.2       1 <0>         0.0000
     33 F1         -7.4479   -0.0751    6.0628 F         1 <0>         0.0000
     34 F2         -9.1835   -1.3793    5.8769 F         1 <0>         0.0000
     35 F3         -9.1424    0.1702    7.4094 F         1 <0>         0.0000
     36 S1         -4.0239   -3.3797    6.0595 S.2       1 <0>         0.0000
     37 H1         -8.5922   -3.9831   10.1552 H         1 <0>         0.0000
     38 H2         -6.1183   -4.2184   10.2293 H         1 <0>         0.0000
     39 H3         -5.7522   -1.2616    7.1322 H         1 <0>         0.0000
     40 H4          4.5455    0.5341    2.4470 H         1 <0>         0.0000
     41 H5          4.7900   -0.9783    3.3515 H         1 <0>         0.0000
     42 H6          3.6228   -3.0771    2.3743 H         1 <0>         0.0000
     43 H7          2.6525   -2.8446    0.9123 H         1 <0>         0.0000
     44 H8          3.1277    0.3699    4.5305 H         1 <0>         0.0000
     45 H9          2.1648    0.5725    3.0490 H         1 <0>         0.0000
     46 H10         1.0306   -1.4639    2.1132 H         1 <0>         0.0000
     47 H11         1.2601   -3.0122    2.9554 H         1 <0>         0.0000
     48 H12        -0.5780   -4.3794   10.0400 H         1 <0>         0.0000
     49 H13        -2.1847   -5.1283    9.9226 H         1 <0>         0.0000
     50 H14        -1.7660   -4.1304   11.3332 H         1 <0>         0.0000
     51 H15        -0.3225   -1.8546    9.7126 H         1 <0>         0.0000
     52 H16        -1.4749   -1.5730   11.0342 H         1 <0>         0.0000
     53 H17        -1.7564   -0.8405    9.4402 H         1 <0>         0.0000
     54 H18         2.7388   -1.8879   -3.5012 H         1 <0>         0.0000
     55 H19         4.2301   -2.8263   -3.3411 H         1 <0>         0.0000
     56 H20         4.2035   -1.3725   -4.3475 H         1 <0>         0.0000
     57 H21         2.6302   -1.6388   -0.9282 H         1 <0>         0.0000
     58 H22         4.1095   -2.5661   -0.7665 H         1 <0>         0.0000
     59 H23         5.3243   -0.8618   -2.1591 H         1 <0>         0.0000
     60 H24         3.8523    0.0629   -2.3168 H         1 <0>         0.0000
     61 H25        -1.4961   -1.6857    5.9644 H         1 <0>         0.0000
     62 H26        -0.3201   -1.3458    7.2337 H         1 <0>         0.0000
     63 H27         1.3478   -2.8591    6.0474 H         1 <0>         0.0000
     64 H28         0.1453   -3.1338    4.7917 H         1 <0>         0.0000
     65 H29        -0.2861   -3.7519    7.8692 H         1 <0>         0.0000
     66 H30        -1.3507   -4.1438    6.5169 H         1 <0>         0.0000
     67 H31         0.1571   -0.6550    4.2795 H         1 <0>         0.0000
     68 H32         1.3216   -0.4193    5.5844 H         1 <0>         0.0000
@<TRIPOS>BOND
     1    1    5 1
     2    1   26 3
     3    2    3 ar
     4    2    5 ar
     5    2   37 1
     6    3    7 ar
     7    3   38 1
     8    4    6 ar
     9    4    7 ar
    10    4   39 1
    11    5    6 ar
    12    6   25 1
    13    7   27 1
    14    8   15 1
    15    8   27 am
    16    8   31 2
    17    9   27 1
    18    9   28 1
    19    9   36 2
    20   10   19 1
    21   10   29 am
    22   10   32 2
    23   11   13 1
    24   11   29 1
    25   11   40 1
    26   11   41 1
    27   12   14 1
    28   12   29 1
    29   12   42 1
    30   12   43 1
    31   13   30 1
    32   13   44 1
    33   13   45 1
    34   14   30 1
    35   14   46 1
    36   14   47 1
    37   15   16 1
    38   15   17 1
    39   15   28 1
    40   16   48 1
    41   16   49 1
    42   16   50 1
    43   17   51 1
    44   17   52 1
    45   17   53 1
    46   18   20 1
    47   18   54 1
    48   18   55 1
    49   18   56 1
    50   19   20 1
    51   19   57 1
    52   19   58 1
    53   20   59 1
    54   20   60 1
    55   21   22 1
    56   21   23 1
    57   21   61 1
    58   21   62 1
    59   22   24 1
    60   22   63 1
    61   22   64 1
    62   23   28 1
    63   23   65 1
    64   23   66 1
    65   24   30 1
    66   24   67 1
    67   24   68 1
    68   25   33 1
    69   25   34 1
    70   25   35 1
