@<TRIPOS>MOLECULE
*****
   28    28     0     0     0
SMALL
NO_CHARGES

@<TRIPOS>ATOM
      1 C1          0.9244   -4.0483    2.7786 C.ar      1 <0>         0.0000
      2 C2          1.1492   -3.4216    1.5528 C.ar      1 <0>         0.0000
      3 C3          0.2759   -3.3612    3.8047 C.ar      1 <0>         0.0000
      4 C4          0.7254   -2.1078    1.3532 C.ar      1 <0>         0.0000
      5 C5         -0.1479   -2.0473    3.6050 C.ar      1 <0>         0.0000
      6 C6          0.0769   -1.4206    2.3793 C.ar      1 <0>         0.0000
      7 C7         -0.7437    0.2920    0.6942 C.2       1 <0>         0.0000
      8 C8          0.7027    0.9771    2.6493 C.3       1 <0>         0.0000
      9 C9         -3.1699   -0.3205    1.1698 C.3       1 <0>         0.0000
     10 C10        -2.4723    0.4625   -1.0554 C.3       1 <0>         0.0000
     11 C11        -0.3846    0.0103    2.1610 C.3       1 <0>         0.0000
     12 N1         -2.0774    0.1208    0.3064 N.am      1 <0>         0.0000
     13 O1          0.1352    0.6696   -0.0888 O.2       1 <0>         0.0000
     14 H1          1.2555   -5.0709    2.9347 H         1 <0>         0.0000
     15 H2          1.6550   -3.9559    0.7541 H         1 <0>         0.0000
     16 H3          0.1017   -3.8486    4.7595 H         1 <0>         0.0000
     17 H4          0.9048   -1.6276    0.3949 H         1 <0>         0.0000
     18 H5         -0.6526   -1.5197    4.4101 H         1 <0>         0.0000
     19 H6          1.6317    0.8290    2.0875 H         1 <0>         0.0000
     20 H7          0.4063    2.0252    2.5255 H         1 <0>         0.0000
     21 H8          0.9224    0.8174    3.7110 H         1 <0>         0.0000
     22 H9         -3.6442    0.5545    1.6381 H         1 <0>         0.0000
     23 H10        -3.9147   -0.8638    0.5697 H         1 <0>         0.0000
     24 H11        -2.7736   -0.9850    1.9517 H         1 <0>         0.0000
     25 H12        -2.3589   -0.4195   -1.7029 H         1 <0>         0.0000
     26 H13        -3.5228    0.7890   -1.0615 H         1 <0>         0.0000
     27 H14        -1.8333    1.2761   -1.4291 H         1 <0>         0.0000
     28 H15        -1.2718    0.2224    2.7684 H         1 <0>         0.0000
@<TRIPOS>BOND
     1    1    3 ar
     2    1    2 ar
     3    1   14 1
     4    2    4 ar
     5    2   15 1
     6    3    5 ar
     7    3   16 1
     8    4    6 ar
     9    4   17 1
    10    5    6 ar
    11    5   18 1
    12    6   11 1
    13    7   11 1
    14    7   12 am
    15    7   13 2
    16    8   11 1
    17    8   19 1
    18    8   20 1
    19    8   21 1
    20    9   12 1
    21    9   22 1
    22    9   23 1
    23    9   24 1
    24   10   12 1
    25   10   25 1
    26   10   26 1
    27   10   27 1
    28   11   28 1
