@<TRIPOS>MOLECULE
*****
   31    32     0     0     0
SMALL
NO_CHARGES

@<TRIPOS>ATOM
      1 C1          4.2810    0.1938    2.1394 C.ar      1 <0>         0.0000
      2 C2          3.3872   -0.8551    1.8996 C.ar      1 <0>         0.0000
      3 C3          4.7542    0.9784    1.0844 C.ar      1 <0>         0.0000
      4 C4          3.4294   -0.3616   -0.4671 C.ar      1 <0>         0.0000
      5 C5          2.9509   -1.1373    0.5988 C.ar      1 <0>         0.0000
      6 C6          4.3152    0.6746   -0.2018 C.ar      1 <0>         0.0000
      7 C7          0.8356   -1.8196   -0.6240 C.2       1 <0>         0.0000
      8 C8         -1.1282   -0.5121   -1.1529 C.3       1 <0>         0.0000
      9 C9         -0.1108   -0.2741    1.1258 C.3       1 <0>         0.0000
     10 C10        -0.6398    0.3803   -2.2991 C.3       1 <0>         0.0000
     11 C11         0.4797    1.1412    1.1768 C.3       1 <0>         0.0000
     12 C12         1.9525   -2.2462    0.3300 C.3       1 <0>         0.0000
     13 N1         -0.0974   -0.9134   -0.1913 N.am      1 <0>         0.0000
     14 O1          0.7923   -2.2775   -1.7695 O.2       1 <0>         0.0000
     15 F1          4.7654    1.4261   -1.2370 F         1 <0>         0.0000
     16 S1          0.4616    1.7625   -1.7821 S.3       1 <0>         0.0000
     17 S2         -0.3303    2.3546    0.0578 S.3       1 <0>         0.0000
     18 H1          4.6078    0.4064    3.1537 H         1 <0>         0.0000
     19 H2          3.0199   -1.4505    2.7321 H         1 <0>         0.0000
     20 H3          5.4422    1.8031    1.2419 H         1 <0>         0.0000
     21 H4          3.1019   -0.5397   -1.4866 H         1 <0>         0.0000
     22 H5         -1.9038    0.0128   -0.5939 H         1 <0>         0.0000
     23 H6         -1.5691   -1.4104   -1.5960 H         1 <0>         0.0000
     24 H7          0.4361   -0.8978    1.8348 H         1 <0>         0.0000
     25 H8         -1.1500   -0.2435    1.4704 H         1 <0>         0.0000
     26 H9         -0.0314   -0.2000   -2.9966 H         1 <0>         0.0000
     27 H10        -1.5091    0.7788   -2.8299 H         1 <0>         0.0000
     28 H11         0.3445    1.5429    2.1880 H         1 <0>         0.0000
     29 H12         1.5452    1.1369    0.9515 H         1 <0>         0.0000
     30 H13         2.4439   -3.0837   -0.1712 H         1 <0>         0.0000
     31 H14         1.5462   -2.6237    1.2733 H         1 <0>         0.0000
@<TRIPOS>BOND
     1    1    2 ar
     2    1    3 ar
     3    1   18 1
     4    2    5 ar
     5    2   19 1
     6    3    6 ar
     7    3   20 1
     8    4    5 ar
     9    4    6 ar
    10    4   21 1
    11    5   12 1
    12    6   15 1
    13    7   12 1
    14    7   13 am
    15    7   14 2
    16    8   10 1
    17    8   13 1
    18    8   22 1
    19    8   23 1
    20    9   11 1
    21    9   13 1
    22    9   24 1
    23    9   25 1
    24   10   16 1
    25   10   26 1
    26   10   27 1
    27   11   17 1
    28   11   28 1
    29   11   29 1
    30   12   30 1
    31   12   31 1
    32   16   17 1
