@<TRIPOS>MOLECULE
*****
   25    26     0     0     0
SMALL
NO_CHARGES

@<TRIPOS>ATOM
      1 C1         -4.2508    2.8718    2.9821 C.ar      1 <0>         0.0000
      2 C2         -5.0870    2.4717    1.9344 C.ar      1 <0>         0.0000
      3 C3          1.6186   -1.8592    0.2756 C.ar      1 <0>         0.0000
      4 C4          3.1376   -0.4551    1.5857 C.ar      1 <0>         0.0000
      5 C5          0.5367   -1.3662    1.0024 C.ar      1 <0>         0.0000
      6 C6          2.0523    0.0386    2.3111 C.ar      1 <0>         0.0000
      7 C7         -2.9127    2.4800    2.9652 C.ar      1 <0>         0.0000
      8 C8         -4.5445    1.6890    0.9133 C.ar      1 <0>         0.0000
      9 C9          2.8960   -1.3913    0.5833 C.ar      1 <0>         0.0000
     10 C10         0.7706   -0.4243    2.0086 C.ar      1 <0>         0.0000
     11 C11        -2.4950    1.6875    1.8919 C.ar      1 <0>         0.0000
     12 N1         -3.2627    1.2901    0.8915 N.ar      1 <0>         0.0000
     13 O1         -1.6375   -0.8364    3.0812 O.2       1 <0>         0.0000
     14 O2         -0.1351    0.9372    4.0988 O.2       1 <0>         0.0000
     15 O3         -1.1519    1.2961    1.8009 O.3       1 <0>         0.0000
     16 F1          3.9453   -1.8704   -0.1209 F         1 <0>         0.0000
     17 S1         -0.6134    0.1916    2.9385 S.o2      1 <0>         0.0000
     18 H1         -4.6309    3.4832    3.7960 H         1 <0>         0.0000
     19 H2         -6.1340    2.7580    1.9063 H         1 <0>         0.0000
     20 H3          1.4873   -2.5916   -0.5143 H         1 <0>         0.0000
     21 H4          4.1527   -0.1284    1.7870 H         1 <0>         0.0000
     22 H5         -0.4729   -1.7078    0.7981 H         1 <0>         0.0000
     23 H6          2.1936    0.7643    3.1052 H         1 <0>         0.0000
     24 H7         -2.2118    2.7620    3.7438 H         1 <0>         0.0000
     25 H8         -5.1598    1.3604    0.0779 H         1 <0>         0.0000
@<TRIPOS>BOND
     1    1    2 ar
     2    1    7 ar
     3    1   18 1
     4    2    8 ar
     5    2   19 1
     6    3    5 ar
     7    3    9 ar
     8    3   20 1
     9    4    6 ar
    10    4    9 ar
    11    4   21 1
    12    5   10 ar
    13    5   22 1
    14    6   10 ar
    15    6   23 1
    16    7   11 ar
    17    7   24 1
    18    8   12 ar
    19    8   25 1
    20    9   16 1
    21   10   17 1
    22   11   12 ar
    23   11   15 1
    24   13   17 2
    25   14   17 2
    26   15   17 1
