@<TRIPOS>MOLECULE
*****
   38    40     0     0     0
SMALL
NO_CHARGES

@<TRIPOS>ATOM
      1 C1          1.8151   -1.9159    0.1535 C.ar      1 <0>         0.0000
      2 C2          3.2256   -0.3422    1.3042 C.ar      1 <0>         0.0000
      3 C3          0.6922   -1.3953    0.7999 C.ar      1 <0>         0.0000
      4 C4          2.1140    0.1986    1.9483 C.ar      1 <0>         0.0000
      5 C5         -2.2359    1.1181    2.9486 C.2       1 <0>         0.0000
      6 C6          3.0971   -1.4000    0.3899 C.ar      1 <0>         0.0000
      7 C7          0.8448   -0.3263    1.6863 C.ar      1 <0>         0.0000
      8 C8         -1.3526    1.0161    4.0733 C.2       1 <0>         0.0000
      9 C9         -1.4915    0.6028    1.8877 C.2       1 <0>         0.0000
     10 C10        -6.2506    3.0734    2.7578 C.2       1 <0>         0.0000
     11 C11        -6.2237    2.7536    4.9312 C.2       1 <0>         0.0000
     12 C12        -3.5842    1.6245    2.8670 C.2       1 <0>         0.0000
     13 C13         4.3046   -1.9522   -0.3303 C.3       1 <0>         0.0000
     14 C14        -1.6147    1.4082    5.4913 C.3       1 <0>         0.0000
     15 C15        -5.8664    3.2008    1.3217 C.3       1 <0>         0.0000
     16 N1         -0.1884    0.4856    3.7154 N.2       1 <0>         0.0000
     17 N2         -7.3963    3.4762    3.2536 N.2       1 <0>         0.0000
     18 N3         -7.3926    3.2646    4.6308 N.2       1 <0>         0.0000
     19 N4         -4.1654    2.1108    3.9115 N.2       1 <0>         0.0000
     20 N5         -0.2788    0.2241    2.3685 N.pl3     1 <0>         0.0000
     21 N6         -5.4545    2.5865    3.7992 N.pl3     1 <0>         0.0000
     22 S1         -5.6184    2.2946    6.5176 S.3       1 <0>         0.0000
     23 Cl1        -1.9299    0.5180    0.2221 Cl        1 <0>         0.0000
     24 H1          1.6897   -2.7498   -0.5328 H         1 <0>         0.0000
     25 H2          4.2108    0.0675    1.5149 H         1 <0>         0.0000
     26 H3         -0.2865   -1.8309    0.6291 H         1 <0>         0.0000
     27 H4          2.2173    1.0113    2.6595 H         1 <0>         0.0000
     28 H5         -4.0714    1.5589    1.8945 H         1 <0>         0.0000
     29 H6          4.5317   -1.3570   -1.2230 H         1 <0>         0.0000
     30 H7          5.1926   -1.9352    0.3085 H         1 <0>         0.0000
     31 H8          4.1396   -2.9832   -0.6556 H         1 <0>         0.0000
     32 H9         -2.4688    0.8566    5.8951 H         1 <0>         0.0000
     33 H10        -0.7297    1.2025    6.0975 H         1 <0>         0.0000
     34 H11        -1.8701    2.4694    5.5614 H         1 <0>         0.0000
     35 H12        -4.8886    3.6794    1.2028 H         1 <0>         0.0000
     36 H13        -5.8409    2.2347    0.8057 H         1 <0>         0.0000
     37 H14        -6.6205    3.8231    0.8364 H         1 <0>         0.0000
     38 H15        -6.7666    2.6637    7.1217 H         1 <0>         0.0000
@<TRIPOS>BOND
     1    1    3 ar
     2    1    6 ar
     3    1   24 1
     4    2    4 ar
     5    2    6 ar
     6    2   25 1
     7    3    7 ar
     8    3   26 1
     9    4    7 ar
    10    4   27 1
    11    5    8 1
    12    5    9 2
    13    5   12 1
    14    6   13 1
    15    7   20 1
    16    8   14 1
    17    8   16 2
    18    9   20 1
    19    9   23 1
    20   10   15 1
    21   10   17 2
    22   10   21 1
    23   11   18 2
    24   11   21 1
    25   11   22 1
    26   12   19 2
    27   12   28 1
    28   13   29 1
    29   13   30 1
    30   13   31 1
    31   14   32 1
    32   14   33 1
    33   14   34 1
    34   15   35 1
    35   15   36 1
    36   15   37 1
    37   16   20 1
    38   17   18 1
    39   19   21 1
    40   22   38 1
