@<TRIPOS>MOLECULE
*****
   15    14     0     0     0
SMALL
NO_CHARGES

@<TRIPOS>ATOM
      1 C1         -0.3257    1.6640    0.5480 C.2       1 <0>         0.0000
      2 C2         -0.4444    0.6328   -0.2952 C.2       1 <0>         0.0000
      3 C3          0.1752   -0.7189   -0.0678 C.2       1 <0>         0.0000
      4 O1          0.5567   -1.4211   -0.9878 O.2       1 <0>         0.0000
      5 O2          0.6694    2.2673   -2.6482 O.2       1 <0>         0.0000
      6 O3          0.3239   -1.1325    1.2058 O.3       1 <0>         0.0000
      7 O4         -1.5014    1.4821   -3.8681 O.3       1 <0>         0.0000
      8 O5          0.2260   -0.2237   -3.4473 O.3       1 <0>         0.0000
      9 O6         -1.1029    0.7413   -1.4998 O.3       1 <0>         0.0000
     10 P1         -0.2847    1.1645   -2.8761 P.3       1 <0>         0.0000
     11 H1         -0.7169    2.6391    0.2794 H         1 <0>         0.0000
     12 H2          0.2019    1.5748    1.4924 H         1 <0>         0.0000
     13 H3         -0.1611   -0.5422    1.8080 H         1 <0>         0.0000
     14 H4         -1.5906    2.4399   -4.0104 H         1 <0>         0.0000
     15 H5          0.4532   -0.8526   -2.7184 H         1 <0>         0.0000
@<TRIPOS>BOND
     1    1    2 2
     2    1   11 1
     3    1   12 1
     4    2    3 1
     5    2    9 1
     6    3    4 2
     7    3    6 1
     8    5   10 2
     9    6   13 1
    10    7   10 1
    11    7   14 1
    12    8   10 1
    13    8   15 1
    14    9   10 1
