@<TRIPOS>MOLECULE
*****
   15    14     0     0     0
SMALL
NO_CHARGES

@<TRIPOS>ATOM
      1 C1          0.2598    1.4468    0.5081 C.2       1 <0>         0.0000
      2 C2          0.0396    0.4199   -0.3201 C.2       1 <0>         0.0000
      3 C3          0.8513   -0.8463   -0.3281 C.2       1 <0>         0.0000
      4 O1          1.0681   -1.4707   -1.3521 O.2       1 <0>         0.0000
      5 O2          0.1722    2.3345   -2.7514 O.2       1 <0>         0.0000
      6 O3          1.3649   -1.2671    0.8438 O.3       1 <0>         0.0000
      7 O4         -2.0332    1.1311   -3.4530 O.3       1 <0>         0.0000
      8 O5          0.0571   -0.1842   -3.5656 O.3       1 <0>         0.0000
      9 O6         -0.9222    0.4587   -1.3053 O.3       1 <0>         0.0000
     10 P1         -0.5687    1.0593   -2.8074 P.3       1 <0>         0.0000
     11 H1         -0.2967    2.3707    0.3957 H         1 <0>         0.0000
     12 H2          1.0282    1.4093    1.2739 H         1 <0>         0.0000
     13 H3          0.9813   -0.7576    1.5785 H         1 <0>         0.0000
     14 H4         -2.3438    2.0511   -3.5050 H         1 <0>         0.0000
     15 H5          0.4981   -0.8150   -2.9430 H         1 <0>         0.0000
@<TRIPOS>BOND
     1    1    2 2
     2    1   11 1
     3    1   12 1
     4    2    3 1
     5    2    9 1
     6    3    4 2
     7    3    6 1
     8    5   10 2
     9    6   13 1
    10    7   10 1
    11    7   14 1
    12    8   10 1
    13    8   15 1
    14    9   10 1
