@<TRIPOS>MOLECULE
*****
   15    14     0     0     0
SMALL
NO_CHARGES

@<TRIPOS>ATOM
      1 C1          1.2333    0.8943   -0.1890 C.2       1 <0>         0.0000
      2 C2          0.2575   -0.0055   -0.3057 C.2       1 <0>         0.0000
      3 C3          0.1456   -1.2177    0.5802 C.2       1 <0>         0.0000
      4 O1          0.9416   -1.4574    1.4599 O.2       1 <0>         0.0000
      5 O2          0.3192    1.4242   -3.2385 O.2       1 <0>         0.0000
      6 O3         -0.9111   -2.0216    0.3278 O.3       1 <0>         0.0000
      7 O4         -1.9880    0.1969   -3.3948 O.3       1 <0>         0.0000
      8 O5          0.0979   -1.1917   -3.1544 O.3       1 <0>         0.0000
      9 O6         -0.7967    0.0997   -1.2365 O.3       1 <0>         0.0000
     10 P1         -0.4911    0.2641   -2.8220 P.3       1 <0>         0.0000
     11 H1          1.2947    1.7602   -0.8389 H         1 <0>         0.0000
     12 H2          1.9879    0.7325    0.5724 H         1 <0>         0.0000
     13 H3         -1.4221   -1.6528   -0.4176 H         1 <0>         0.0000
     14 H4         -2.3139    1.0748   -3.6588 H         1 <0>         0.0000
     15 H5          0.7354   -1.1784   -3.8891 H         1 <0>         0.0000
@<TRIPOS>BOND
     1    1    2 2
     2    1   11 1
     3    1   12 1
     4    2    3 1
     5    2    9 1
     6    3    4 2
     7    3    6 1
     8    5   10 2
     9    6   13 1
    10    7   10 1
    11    7   14 1
    12    8   10 1
    13    8   15 1
    14    9   10 1
