@<TRIPOS>MOLECULE
*****
   31    32     0     0     0
SMALL
NO_CHARGES

@<TRIPOS>ATOM
      1 C1          3.6893   -0.4048    3.1512 C.ar      1 <0>         0.0000
      2 C2          3.0898   -1.2870    2.2462 C.ar      1 <0>         0.0000
      3 C3          4.0467    0.8861    2.7532 C.ar      1 <0>         0.0000
      4 C4          3.2028    0.3979    0.5154 C.ar      1 <0>         0.0000
      5 C5          2.8372   -0.8922    0.9261 C.ar      1 <0>         0.0000
      6 C6          3.7956    1.2544    1.4339 C.ar      1 <0>         0.0000
      7 C7          1.0467   -1.1355   -0.8545 C.2       1 <0>         0.0000
      8 C8         -1.1206   -0.0768   -1.0161 C.3       1 <0>         0.0000
      9 C9         -0.3736   -0.9374    1.2166 C.3       1 <0>         0.0000
     10 C10        -0.7682    1.3554   -1.4339 C.3       1 <0>         0.0000
     11 C11        -0.1394    0.3024    2.0898 C.3       1 <0>         0.0000
     12 C12         2.1522   -1.8252   -0.0533 C.3       1 <0>         0.0000
     13 N1         -0.1045   -0.7609   -0.2115 N.am      1 <0>         0.0000
     14 O1          1.2041   -0.9091   -2.0577 O.2       1 <0>         0.0000
     15 F1          4.1370    2.5037    1.0315 F         1 <0>         0.0000
     16 S1         -0.0576    2.3951   -0.0913 S.3       1 <0>         0.0000
     17 S2         -1.1137    1.7842    1.6043 S.3       1 <0>         0.0000
     18 H1          3.8749   -0.7208    4.1741 H         1 <0>         0.0000
     19 H2          2.8080   -2.2849    2.5734 H         1 <0>         0.0000
     20 H3          4.5062    1.5939    3.4359 H         1 <0>         0.0000
     21 H4          3.0085    0.7452   -0.4945 H         1 <0>         0.0000
     22 H5         -2.0410   -0.0647   -0.4311 H         1 <0>         0.0000
     23 H6         -1.2982   -0.6545   -1.9284 H         1 <0>         0.0000
     24 H7          0.2471   -1.7477    1.6028 H         1 <0>         0.0000
     25 H8         -1.4145   -1.2614    1.3221 H         1 <0>         0.0000
     26 H9          0.0071    1.3448   -2.2034 H         1 <0>         0.0000
     27 H10        -1.6646    1.8348   -1.8375 H         1 <0>         0.0000
     28 H11        -0.4510    0.0740    3.1159 H         1 <0>         0.0000
     29 H12         0.9125    0.5840    2.1081 H         1 <0>         0.0000
     30 H13         2.8651   -2.1754   -0.8038 H         1 <0>         0.0000
     31 H14         1.7710   -2.7068    0.4710 H         1 <0>         0.0000
@<TRIPOS>BOND
     1    1    2 ar
     2    1    3 ar
     3    1   18 1
     4    2    5 ar
     5    2   19 1
     6    3    6 ar
     7    3   20 1
     8    4    5 ar
     9    4    6 ar
    10    4   21 1
    11    5   12 1
    12    6   15 1
    13    7   12 1
    14    7   13 am
    15    7   14 2
    16    8   10 1
    17    8   13 1
    18    8   22 1
    19    8   23 1
    20    9   11 1
    21    9   13 1
    22    9   24 1
    23    9   25 1
    24   10   16 1
    25   10   26 1
    26   10   27 1
    27   11   17 1
    28   11   28 1
    29   11   29 1
    30   12   30 1
    31   12   31 1
    32   16   17 1
