@<TRIPOS>MOLECULE
*****
   31    32     0     0     0
SMALL
NO_CHARGES

@<TRIPOS>ATOM
      1 C1          4.4668   -0.6280    2.3799 C.ar      1 <0>         0.0000
      2 C2          3.5344   -1.5154    1.8327 C.ar      1 <0>         0.0000
      3 C3          5.0659    0.3517    1.5844 C.ar      1 <0>         0.0000
      4 C4          3.7869   -0.4630   -0.3300 C.ar      1 <0>         0.0000
      5 C5          3.1866   -1.4410    0.4768 C.ar      1 <0>         0.0000
      6 C6          4.7066    0.4080    0.2404 C.ar      1 <0>         0.0000
      7 C7          1.1946   -1.7359   -1.0720 C.2       1 <0>         0.0000
      8 C8          0.0210   -0.7395    0.9071 C.3       1 <0>         0.0000
      9 C9         -0.6657   -0.2246   -1.4515 C.3       1 <0>         0.0000
     10 C10        -0.6827   -1.8958    1.6500 C.3       1 <0>         0.0000
     11 C11        -1.9411   -1.0092   -1.7591 C.3       1 <0>         0.0000
     12 C12         2.1874   -2.4106   -0.1259 C.3       1 <0>         0.0000
     13 N1          0.2440   -0.9093   -0.5267 N.am      1 <0>         0.0000
     14 O1          1.2888   -1.9019   -2.2901 O.2       1 <0>         0.0000
     15 F1          5.2802    1.3545   -0.5468 F         1 <0>         0.0000
     16 S1         -1.9261   -2.8266    0.6728 S.3       1 <0>         0.0000
     17 S2         -3.0044   -1.3194   -0.2895 S.3       1 <0>         0.0000
     18 H1          4.7279   -0.6974    3.4324 H         1 <0>         0.0000
     19 H2          3.0761   -2.2726    2.4645 H         1 <0>         0.0000
     20 H3          5.7904    1.0553    1.9825 H         1 <0>         0.0000
     21 H4          3.5447   -0.3773   -1.3856 H         1 <0>         0.0000
     22 H5         -0.5981    0.1514    1.0172 H         1 <0>         0.0000
     23 H6          0.9671   -0.5275    1.4141 H         1 <0>         0.0000
     24 H7         -0.1244   -0.0612   -2.3857 H         1 <0>         0.0000
     25 H8         -0.9184    0.7491   -1.0218 H         1 <0>         0.0000
     26 H9          0.0251   -2.6699    1.9631 H         1 <0>         0.0000
     27 H10        -1.1471   -1.4932    2.5547 H         1 <0>         0.0000
     28 H11        -2.5695   -0.4325   -2.4477 H         1 <0>         0.0000
     29 H12        -1.7036   -1.9669   -2.2260 H         1 <0>         0.0000
     30 H13         2.7082   -3.1501   -0.7392 H         1 <0>         0.0000
     31 H14         1.6712   -2.9550    0.6675 H         1 <0>         0.0000
@<TRIPOS>BOND
     1    1    2 ar
     2    1    3 ar
     3    1   18 1
     4    2    5 ar
     5    2   19 1
     6    3    6 ar
     7    3   20 1
     8    4    5 ar
     9    4    6 ar
    10    4   21 1
    11    5   12 1
    12    6   15 1
    13    7   12 1
    14    7   13 am
    15    7   14 2
    16    8   10 1
    17    8   13 1
    18    8   22 1
    19    8   23 1
    20    9   11 1
    21    9   13 1
    22    9   24 1
    23    9   25 1
    24   10   16 1
    25   10   26 1
    26   10   27 1
    27   11   17 1
    28   11   28 1
    29   11   29 1
    30   12   30 1
    31   12   31 1
    32   16   17 1
