@<TRIPOS>MOLECULE
*****
   15    14     0     0     0
SMALL
NO_CHARGES

@<TRIPOS>ATOM
      1 C1          0.6621    1.7813    0.4569 C.2       1 <0>         0.0000
      2 C2         -0.0647    0.7302    0.0819 C.2       1 <0>         0.0000
      3 C3         -0.0101   -0.5958    0.8130 C.2       1 <0>         0.0000
      4 O1          0.3273   -0.6367    1.9773 O.2       1 <0>         0.0000
      5 O2         -0.2355   -1.0233   -2.5623 O.2       1 <0>         0.0000
      6 O3         -0.3458   -1.7058    0.1340 O.3       1 <0>         0.0000
      7 O4          0.4239    1.4784   -2.9628 O.3       1 <0>         0.0000
      8 O5         -1.9654    0.8170   -3.2677 O.3       1 <0>         0.0000
      9 O6         -0.9971    0.8668   -0.9724 O.3       1 <0>         0.0000
     10 P1         -0.6485    0.4020   -2.4655 P.3       1 <0>         0.0000
     11 H1          0.6004    2.7240   -0.0766 H         1 <0>         0.0000
     12 H2          1.3173    1.6897    1.3154 H         1 <0>         0.0000
     13 H3         -0.3565   -1.5745   -0.8450 H         1 <0>         0.0000
     14 H4          1.0750    1.0996   -3.5787 H         1 <0>         0.0000
     15 H5         -2.6428    0.1181   -3.2698 H         1 <0>         0.0000
@<TRIPOS>BOND
     1    1    2 2
     2    1   11 1
     3    1   12 1
     4    2    3 1
     5    2    9 1
     6    3    4 2
     7    3    6 1
     8    5   10 2
     9    6   13 1
    10    7   10 1
    11    7   14 1
    12    8   10 1
    13    8   15 1
    14    9   10 1
