@<TRIPOS>MOLECULE
*****
   35    36     0     0     0
SMALL
NO_CHARGES

@<TRIPOS>ATOM
      1 C1         -1.4229   -4.7323    3.3104 C.2       1 <0>         0.0000
      2 C2         -2.3372   -3.6759    3.4916 C.2       1 <0>         0.0000
      3 C3          0.4959   -1.8357    0.9355 C.2       1 <0>         0.0000
      4 C4          0.6378    0.2528   -1.9222 C.3       1 <0>         0.0000
      5 C5          0.7415   -1.2274   -1.4831 C.3       1 <0>         0.0000
      6 C6          2.2101   -0.2979    0.2273 C.3       1 <0>         0.0000
      7 C7          1.5548    1.1030    0.2701 C.3       1 <0>         0.0000
      8 C8          0.3536    1.1701   -0.7265 C.3       1 <0>         0.0000
      9 C9          2.6386    2.1648    0.0457 C.3       1 <0>         0.0000
     10 C10         0.0261    2.5941   -1.1829 C.3       1 <0>         0.0000
     11 C11        -0.7127   -2.7095    0.5581 C.3       1 <0>         0.0000
     12 N1         -0.7404   -4.5158    2.1803 N.2       1 <0>         0.0000
     13 N2         -2.2080   -2.8203    2.4710 N.2       1 <0>         0.0000
     14 N3         -1.2543   -3.3739    1.7191 N.pl3     1 <0>         0.0000
     15 N4          1.2363   -1.3341   -0.1048 N.am      1 <0>         0.0000
     16 O1          0.7738   -1.6247    2.1121 O.2       1 <0>         0.0000
     17 O2         -0.8322    0.6032   -0.1174 O.3       1 <0>         0.0000
     18 H1         -1.2357   -5.6094    3.9150 H         1 <0>         0.0000
     19 H2         -3.0605   -3.5015    4.2766 H         1 <0>         0.0000
     20 H3          1.5661    0.5810   -2.4011 H         1 <0>         0.0000
     21 H4         -0.1586    0.3545   -2.6656 H         1 <0>         0.0000
     22 H5         -0.2375   -1.6934   -1.5587 H         1 <0>         0.0000
     23 H6          1.4163   -1.7712   -2.1561 H         1 <0>         0.0000
     24 H7          2.9932   -0.3208   -0.5401 H         1 <0>         0.0000
     25 H8          2.6696   -0.5390    1.1848 H         1 <0>         0.0000
     26 H9          1.1405    1.2476    1.2758 H         1 <0>         0.0000
     27 H10         3.0399    2.1192   -0.9736 H         1 <0>         0.0000
     28 H11         3.4745    1.9950    0.7333 H         1 <0>         0.0000
     29 H12         2.2711    3.1791    0.2195 H         1 <0>         0.0000
     30 H13        -0.1474    3.2508   -0.3224 H         1 <0>         0.0000
     31 H14        -0.8879    2.5759   -1.7831 H         1 <0>         0.0000
     32 H15         0.8282    3.0317   -1.7842 H         1 <0>         0.0000
     33 H16        -0.4431   -3.4741   -0.1722 H         1 <0>         0.0000
     34 H17        -1.4982   -2.0719    0.1485 H         1 <0>         0.0000
     35 H18        -0.9609    1.0130    0.7531 H         1 <0>         0.0000
@<TRIPOS>BOND
     1    1    2 1
     2    1   12 2
     3    1   18 1
     4    2   13 2
     5    2   19 1
     6    3   11 1
     7    3   15 am
     8    3   16 2
     9    4    5 1
    10    4    8 1
    11    4   20 1
    12    4   21 1
    13    5   15 1
    14    5   22 1
    15    5   23 1
    16    6    7 1
    17    6   15 1
    18    6   24 1
    19    6   25 1
    20    7    8 1
    21    7    9 1
    22    7   26 1
    23    8   10 1
    24    8   17 1
    25    9   27 1
    26    9   28 1
    27    9   29 1
    28   10   30 1
    29   10   31 1
    30   10   32 1
    31   11   14 1
    32   11   33 1
    33   11   34 1
    34   12   14 1
    35   13   14 1
    36   17   35 1
