@<TRIPOS>MOLECULE
*****
   31    32     0     0     0
SMALL
NO_CHARGES

@<TRIPOS>ATOM
      1 C1         -1.1364   -1.2979   -3.9568 C.ar      1 <0>         0.0000
      2 C2         -1.6530   -1.0131   -2.6916 C.ar      1 <0>         0.0000
      3 C3         -1.0317   -0.2973   -4.9293 C.ar      1 <0>         0.0000
      4 C4         -1.9794    1.2927   -3.3401 C.ar      1 <0>         0.0000
      5 C5         -2.0730    0.2864   -2.3708 C.ar      1 <0>         0.0000
      6 C6         -1.4637    0.9810   -4.5945 C.ar      1 <0>         0.0000
      7 C7         -1.7472   -0.0241    0.1284 C.2       1 <0>         0.0000
      8 C8          0.2940   -0.1795    1.4149 C.3       1 <0>         0.0000
      9 C9          0.1668    1.5178   -0.4254 C.3       1 <0>         0.0000
     10 C10         0.7825   -1.5994    1.1088 C.3       1 <0>         0.0000
     11 C11         1.1399    1.0360   -1.5095 C.3       1 <0>         0.0000
     12 C12        -2.5946    0.6001   -0.9819 C.3       1 <0>         0.0000
     13 N1         -0.4830    0.4585    0.3487 N.am      1 <0>         0.0000
     14 O1         -2.1984   -0.9531    0.8044 O.2       1 <0>         0.0000
     15 F1         -1.3722    1.9707   -5.5215 F         1 <0>         0.0000
     16 S1          1.5197   -1.8144   -0.5647 S.3       1 <0>         0.0000
     17 S2          2.5208   -0.0113   -0.8952 S.3       1 <0>         0.0000
     18 H1         -0.7978   -2.3042   -4.1862 H         1 <0>         0.0000
     19 H2         -1.7062   -1.7950   -1.9403 H         1 <0>         0.0000
     20 H3         -0.6267   -0.4929   -5.9172 H         1 <0>         0.0000
     21 H4         -2.2914    2.3129   -3.1330 H         1 <0>         0.0000
     22 H5         -0.3193   -0.2282    2.3200 H         1 <0>         0.0000
     23 H6          1.1536    0.4613    1.6153 H         1 <0>         0.0000
     24 H7          0.7012    2.1656    0.2777 H         1 <0>         0.0000
     25 H8         -0.5957    2.1353   -0.9026 H         1 <0>         0.0000
     26 H9          1.5076   -1.8945    1.8726 H         1 <0>         0.0000
     27 H10        -0.0568   -2.2984    1.1243 H         1 <0>         0.0000
     28 H11         0.6224    0.4823   -2.2918 H         1 <0>         0.0000
     29 H12         1.6203    1.9094   -1.9659 H         1 <0>         0.0000
     30 H13        -2.6841    1.6823   -0.8458 H         1 <0>         0.0000
     31 H14        -3.5910    0.1720   -0.8476 H         1 <0>         0.0000
@<TRIPOS>BOND
     1    1    2 ar
     2    1    3 ar
     3    1   18 1
     4    2    5 ar
     5    2   19 1
     6    3    6 ar
     7    3   20 1
     8    4    5 ar
     9    4    6 ar
    10    4   21 1
    11    5   12 1
    12    6   15 1
    13    7   12 1
    14    7   13 am
    15    7   14 2
    16    8   10 1
    17    8   13 1
    18    8   22 1
    19    8   23 1
    20    9   11 1
    21    9   13 1
    22    9   24 1
    23    9   25 1
    24   10   16 1
    25   10   26 1
    26   10   27 1
    27   11   17 1
    28   11   28 1
    29   11   29 1
    30   12   30 1
    31   12   31 1
    32   16   17 1
