@<TRIPOS>MOLECULE
*****
   18    18     0     0     0
SMALL
NO_CHARGES

@<TRIPOS>ATOM
      1 C1         -0.1242   -0.6787   -1.0539 C.2       1 <0>         0.0000
      2 C2          0.0262   -0.1048    1.0300 C.2       1 <0>         0.0000
      3 C3          0.1640    0.8410   -1.0150 C.3       1 <0>         0.0000
      4 C4          0.7693    2.2970    0.9975 C.3       1 <0>         0.0000
      5 N1         -0.1731   -1.1499    0.2645 N.2       1 <0>         0.0000
      6 N2          0.1454    1.1157    0.4218 N.pl3     1 <0>         0.0000
      7 N3          0.0990   -0.2073    2.4037 N.pl3     1 <0>         0.0000
      8 O1         -0.2778   -1.3266   -2.0701 O.2       1 <0>         0.0000
      9 O2          0.1137   -1.2285    4.7800 O.2       1 <0>         0.0000
     10 P1         -0.0337   -1.5993    3.3601 P.3       1 <0>         0.0000
     11 Cl1         1.3628   -2.8982    2.6577 Cl        1 <0>         0.0000
     12 Cl2        -1.8077   -2.4651    2.8785 Cl        1 <0>         0.0000
     13 H1          1.1443    1.0546   -1.4565 H         1 <0>         0.0000
     14 H2         -0.6033    1.4058   -1.5511 H         1 <0>         0.0000
     15 H3          1.8584    2.1918    1.0953 H         1 <0>         0.0000
     16 H4          0.3417    2.5262    1.9782 H         1 <0>         0.0000
     17 H5          0.5567    3.1525    0.3536 H         1 <0>         0.0000
     18 H6          0.2197    0.6323    2.9616 H         1 <0>         0.0000
@<TRIPOS>BOND
     1    1    3 1
     2    1    5 1
     3    1    8 2
     4    2    5 2
     5    2    6 1
     6    2    7 1
     7    3    6 1
     8    3   13 1
     9    3   14 1
    10    4    6 1
    11    4   15 1
    12    4   16 1
    13    4   17 1
    14    7   10 1
    15    7   18 1
    16    9   10 2
    17   10   11 1
    18   10   12 1
