@<TRIPOS>MOLECULE
*****
   31    32     0     0     0
SMALL
NO_CHARGES

@<TRIPOS>ATOM
      1 C1          1.6525   -5.3375   -1.2962 C.ar      1 <0>         0.0000
      2 C2          1.8084   -3.9514   -1.2291 C.ar      1 <0>         0.0000
      3 C3          1.7652   -6.1290   -0.1477 C.ar      1 <0>         0.0000
      4 C4          2.1969   -4.1103    1.1522 C.ar      1 <0>         0.0000
      5 C5          2.0804   -3.3256   -0.0027 C.ar      1 <0>         0.0000
      6 C6          2.0380   -5.4897    1.0557 C.ar      1 <0>         0.0000
      7 C7          1.2153   -1.0584   -0.7408 C.2       1 <0>         0.0000
      8 C8         -1.0117   -0.1471   -0.9956 C.3       1 <0>         0.0000
      9 C9         -0.4544   -1.4227    1.0922 C.3       1 <0>         0.0000
     10 C10        -0.7214    1.3584   -1.0613 C.3       1 <0>         0.0000
     11 C11        -0.3376   -0.3954    2.2227 C.3       1 <0>         0.0000
     12 C12         2.2618   -1.8199    0.0721 C.3       1 <0>         0.0000
     13 N1         -0.0458   -0.9302   -0.2231 N.am      1 <0>         0.0000
     14 O1          1.5005   -0.5992   -1.8504 O.2       1 <0>         0.0000
     15 F1          2.1517   -6.2352    2.1867 F         1 <0>         0.0000
     16 S1         -0.1848    2.1132    0.5294 S.3       1 <0>         0.0000
     17 S2         -1.3380    1.1279    1.9669 S.3       1 <0>         0.0000
     18 H1          1.4420   -5.8111   -2.2513 H         1 <0>         0.0000
     19 H2          1.7203   -3.3479   -2.1282 H         1 <0>         0.0000
     20 H3          1.6472   -7.2078   -0.1756 H         1 <0>         0.0000
     21 H4          2.4121   -3.6671    2.1210 H         1 <0>         0.0000
     22 H5         -1.9913   -0.3058   -0.5433 H         1 <0>         0.0000
     23 H6         -1.0399   -0.5260   -2.0220 H         1 <0>         0.0000
     24 H7          0.1327   -2.3072    1.3459 H         1 <0>         0.0000
     25 H8         -1.4931   -1.7583    1.0150 H         1 <0>         0.0000
     26 H9          0.1142    1.5534   -1.7377 H         1 <0>         0.0000
     27 H10        -1.6108    1.8747   -1.4330 H         1 <0>         0.0000
     28 H11        -0.7120   -0.8378    3.1534 H         1 <0>         0.0000
     29 H12         0.7004   -0.0912    2.3793 H         1 <0>         0.0000
     30 H13         2.2717   -1.4924    1.1152 H         1 <0>         0.0000
     31 H14         3.2226   -1.5400   -0.3672 H         1 <0>         0.0000
@<TRIPOS>BOND
     1    1    2 ar
     2    1    3 ar
     3    1   18 1
     4    2    5 ar
     5    2   19 1
     6    3    6 ar
     7    3   20 1
     8    4    5 ar
     9    4    6 ar
    10    4   21 1
    11    5   12 1
    12    6   15 1
    13    7   12 1
    14    7   13 am
    15    7   14 2
    16    8   10 1
    17    8   13 1
    18    8   22 1
    19    8   23 1
    20    9   11 1
    21    9   13 1
    22    9   24 1
    23    9   25 1
    24   10   16 1
    25   10   26 1
    26   10   27 1
    27   11   17 1
    28   11   28 1
    29   11   29 1
    30   12   30 1
    31   12   31 1
    32   16   17 1
