@<TRIPOS>MOLECULE
*****
   15    14     0     0     0
SMALL
NO_CHARGES

@<TRIPOS>ATOM
      1 C1          1.3294    1.1220   -0.7121 C.2       1 <0>         0.0000
      2 C2          0.2430    0.3795   -0.4751 C.2       1 <0>         0.0000
      3 C3          0.1416   -0.6612    0.6057 C.2       1 <0>         0.0000
      4 O1         -0.9171   -0.9421    1.1399 O.2       1 <0>         0.0000
      5 O2         -1.6106    2.6892    0.1368 O.2       1 <0>         0.0000
      6 O3          1.2765   -1.2765    0.9927 O.3       1 <0>         0.0000
      7 O4         -3.0863    0.4755    0.1699 O.3       1 <0>         0.0000
      8 O5         -2.9777    1.8417   -1.8998 O.3       1 <0>         0.0000
      9 O6         -0.9249    0.5576   -1.1845 O.3       1 <0>         0.0000
     10 P1         -2.1331    1.5191   -0.5820 P.3       1 <0>         0.0000
     11 H1          1.2975    1.9148   -1.4515 H         1 <0>         0.0000
     12 H2          2.2502    0.9925   -0.1521 H         1 <0>         0.0000
     13 H3          2.0021   -1.0580    0.3831 H         1 <0>         0.0000
     14 H4         -2.5500   -0.1459    0.7190 H         1 <0>         0.0000
     15 H5         -3.5742    1.1178   -2.1577 H         1 <0>         0.0000
@<TRIPOS>BOND
     1    1    2 2
     2    1   11 1
     3    1   12 1
     4    2    3 1
     5    2    9 1
     6    3    4 2
     7    3    6 1
     8    5   10 2
     9    6   13 1
    10    7   10 1
    11    7   14 1
    12    8   10 1
    13    8   15 1
    14    9   10 1
