@<TRIPOS>MOLECULE
*****
   32    34     0     0     0
SMALL
NO_CHARGES

@<TRIPOS>ATOM
      1 C1         -3.2902    1.9932    0.1914 C.ar      1 <0>         0.0000
      2 C2         -2.8700    0.8587   -0.5368 C.ar      1 <0>         0.0000
      3 C3         -3.7588    1.8815    1.4987 C.ar      1 <0>         0.0000
      4 C4         -2.9093   -0.4154    0.0279 C.ar      1 <0>         0.0000
      5 C5         -4.0348   -1.2556    3.3740 C.2       1 <0>         0.0000
      6 C6         -3.8091    0.6078    2.0928 C.ar      1 <0>         0.0000
      7 C7         -4.2245    0.1170    3.3929 C.2       1 <0>         0.0000
      8 C8         -3.3809   -0.5206    1.3409 C.ar      1 <0>         0.0000
      9 C9         -6.6258    1.8913    9.2566 C.ar      1 <0>         0.0000
     10 C10        -6.6228    3.2296    8.7645 C.ar      1 <0>         0.0000
     11 C11        -5.7988    2.4730    6.8050 C.ar      1 <0>         0.0000
     12 C12        -4.7430    0.8347    4.5372 C.2       1 <0>         0.0000
     13 C13        -7.0913    1.5485   10.6420 C.3       1 <0>         0.0000
     14 N1         -6.2015    0.9264    8.4554 N.ar      1 <0>         0.0000
     15 N2         -6.2171    3.5313    7.5560 N.ar      1 <0>         0.0000
     16 N3         -5.7776    1.1936    7.2099 N.ar      1 <0>         0.0000
     17 N4         -4.8927    2.1213    4.4779 N.2       1 <0>         0.0000
     18 N5         -3.5314   -1.6402    2.1506 N.pl3     1 <0>         0.0000
     19 N6         -5.3823    2.8277    5.5478 N.pl3     1 <0>         0.0000
     20 O1         -7.0548    4.2155    9.5790 O.3       1 <0>         0.0000
     21 H1         -3.2454    2.9709   -0.2814 H         1 <0>         0.0000
     22 H2         -2.5095    0.9793   -1.5549 H         1 <0>         0.0000
     23 H3         -4.0823    2.7503    2.0608 H         1 <0>         0.0000
     24 H4         -2.5857   -1.2890   -0.5330 H         1 <0>         0.0000
     25 H5         -4.2258   -1.9834    4.1523 H         1 <0>         0.0000
     26 H6         -4.9948    0.2605    5.4262 H         1 <0>         0.0000
     27 H7         -8.1334    1.8499   10.7937 H         1 <0>         0.0000
     28 H8         -7.0033    0.4712   10.7928 H         1 <0>         0.0000
     29 H9         -6.4938    2.0684   11.3987 H         1 <0>         0.0000
     30 H10        -3.3071   -2.5885    1.8858 H         1 <0>         0.0000
     31 H11        -5.4447    3.8192    5.3589 H         1 <0>         0.0000
     32 H12        -6.9809    5.0497    9.0771 H         1 <0>         0.0000
@<TRIPOS>BOND
     1    1    2 ar
     2    1    3 ar
     3    1   21 1
     4    2    4 ar
     5    2   22 1
     6    3    6 ar
     7    3   23 1
     8    4    8 ar
     9    4   24 1
    10    5    7 2
    11    5   18 1
    12    5   25 1
    13    6    7 1
    14    6    8 ar
    15    7   12 1
    16    8   18 1
    17    9   10 ar
    18    9   13 1
    19    9   14 ar
    20   10   15 ar
    21   10   20 1
    22   11   15 ar
    23   11   16 ar
    24   11   19 1
    25   12   17 2
    26   12   26 1
    27   13   27 1
    28   13   28 1
    29   13   29 1
    30   14   16 ar
    31   17   19 1
    32   18   30 1
    33   19   31 1
    34   20   32 1
