@<TRIPOS>MOLECULE
*****
   31    32     0     0     0
SMALL
NO_CHARGES

@<TRIPOS>ATOM
      1 C1         -4.4942   -1.3162   -2.9984 C.ar      1 <0>         0.0000
      2 C2         -3.4023   -0.6131   -2.4833 C.ar      1 <0>         0.0000
      3 C3         -5.7815   -1.0953   -2.4990 C.ar      1 <0>         0.0000
      4 C4         -4.8620    0.5489   -0.9487 C.ar      1 <0>         0.0000
      5 C5         -3.5776    0.3236   -1.4564 C.ar      1 <0>         0.0000
      6 C6         -5.9323   -0.1623   -1.4789 C.ar      1 <0>         0.0000
      7 C7         -1.7365    0.3004    0.2741 C.2       1 <0>         0.0000
      8 C8          0.1900    1.9064    0.1612 C.3       1 <0>         0.0000
      9 C9          0.1298   -0.0048    1.7862 C.3       1 <0>         0.0000
     10 C10         1.2008    1.5333   -0.9300 C.3       1 <0>         0.0000
     11 C11         0.6354   -1.3852    1.3446 C.3       1 <0>         0.0000
     12 C12        -2.3910    1.0625   -0.8887 C.3       1 <0>         0.0000
     13 N1         -0.5349    0.7761    0.7405 N.am      1 <0>         0.0000
     14 O1         -2.2689   -0.6846    0.7822 O.2       1 <0>         0.0000
     15 F1         -7.1764    0.0671   -0.9793 F         1 <0>         0.0000
     16 S1          2.5165    0.3736   -0.3752 S.3       1 <0>         0.0000
     17 S2          1.4462   -1.4201   -0.3070 S.3       1 <0>         0.0000
     18 H1         -4.3462   -2.0412   -3.7942 H         1 <0>         0.0000
     19 H2         -2.4053   -0.8013   -2.8744 H         1 <0>         0.0000
     20 H3         -6.6479   -1.6255   -2.8820 H         1 <0>         0.0000
     21 H4         -5.0379    1.2568   -0.1437 H         1 <0>         0.0000
     22 H5          0.7130    2.4198    0.9738 H         1 <0>         0.0000
     23 H6         -0.5235    2.6257   -0.2479 H         1 <0>         0.0000
     24 H7         -0.5659   -0.1565    2.6173 H         1 <0>         0.0000
     25 H8          0.9710    0.5886    2.1465 H         1 <0>         0.0000
     26 H9          0.7067    1.0878   -1.7968 H         1 <0>         0.0000
     27 H10         1.7269    2.4367   -1.2607 H         1 <0>         0.0000
     28 H11         1.3251   -1.7691    2.1013 H         1 <0>         0.0000
     29 H12        -0.2020   -2.0787    1.2381 H         1 <0>         0.0000
     30 H13        -1.6524    1.2343   -1.6769 H         1 <0>         0.0000
     31 H14        -2.6968    2.0507   -0.5256 H         1 <0>         0.0000
@<TRIPOS>BOND
     1    1    2 ar
     2    1    3 ar
     3    1   18 1
     4    2    5 ar
     5    2   19 1
     6    3    6 ar
     7    3   20 1
     8    4    5 ar
     9    4    6 ar
    10    4   21 1
    11    5   12 1
    12    6   15 1
    13    7   12 1
    14    7   13 am
    15    7   14 2
    16    8   10 1
    17    8   13 1
    18    8   22 1
    19    8   23 1
    20    9   11 1
    21    9   13 1
    22    9   24 1
    23    9   25 1
    24   10   16 1
    25   10   26 1
    26   10   27 1
    27   11   17 1
    28   11   28 1
    29   11   29 1
    30   12   30 1
    31   12   31 1
    32   16   17 1
