@<TRIPOS>MOLECULE
*****
   32    34     0     0     0
SMALL
NO_CHARGES

@<TRIPOS>ATOM
      1 C1         -6.4924   -0.4990    1.3511 C.ar      1 <0>         0.0000
      2 C2         -5.8418   -1.4420    0.5257 C.ar      1 <0>         0.0000
      3 C3         -5.7759    0.3076    2.2328 C.ar      1 <0>         0.0000
      4 C4         -4.4571   -1.5994    0.5640 C.ar      1 <0>         0.0000
      5 C5         -2.1369    0.2362    2.6656 C.2       1 <0>         0.0000
      6 C6         -4.3776    0.1696    2.2916 C.ar      1 <0>         0.0000
      7 C7         -3.3320    0.8149    3.0623 C.2       1 <0>         0.0000
      8 C8         -3.7436   -0.7864    1.4513 C.ar      1 <0>         0.0000
      9 C9         -2.1137    5.3674    7.6541 C.ar      1 <0>         0.0000
     10 C10        -3.5203    5.5996    7.6843 C.ar      1 <0>         0.0000
     11 C11        -3.7840    4.0112    6.1038 C.ar      1 <0>         0.0000
     12 C12        -3.4201    1.8573    4.0619 C.2       1 <0>         0.0000
     13 C13        -1.1576    6.1280    8.5263 C.3       1 <0>         0.0000
     14 N1         -1.6467    4.4471    6.8246 N.ar      1 <0>         0.0000
     15 N2         -4.3568    4.9373    6.9242 N.ar      1 <0>         0.0000
     16 N3         -2.4703    3.7464    6.0290 N.ar      1 <0>         0.0000
     17 N4         -4.5766    2.3498    4.3799 N.2       1 <0>         0.0000
     18 N5         -2.3785   -0.7203    1.7039 N.pl3     1 <0>         0.0000
     19 N6         -4.6900    3.3390    5.3244 N.pl3     1 <0>         0.0000
     20 O1         -3.9996    6.5372    8.5289 O.3       1 <0>         0.0000
     21 H1         -7.5737   -0.4039    1.2942 H         1 <0>         0.0000
     22 H2         -6.4293   -2.0563   -0.1515 H         1 <0>         0.0000
     23 H3         -6.2720    1.0327    2.8679 H         1 <0>         0.0000
     24 H4         -3.9562   -2.3257   -0.0718 H         1 <0>         0.0000
     25 H5         -1.1304    0.4435    3.0057 H         1 <0>         0.0000
     26 H6         -2.4959    2.1998    4.5223 H         1 <0>         0.0000
     27 H7         -1.3901    5.9826    9.5868 H         1 <0>         0.0000
     28 H8         -0.1414    5.7813    8.3305 H         1 <0>         0.0000
     29 H9         -1.2154    7.2041    8.3300 H         1 <0>         0.0000
     30 H10        -1.6720   -1.2845    1.2541 H         1 <0>         0.0000
     31 H11        -5.6489    3.6252    5.4697 H         1 <0>         0.0000
     32 H12        -4.9686    6.5549    8.4113 H         1 <0>         0.0000
@<TRIPOS>BOND
     1    1    2 ar
     2    1    3 ar
     3    1   21 1
     4    2    4 ar
     5    2   22 1
     6    3    6 ar
     7    3   23 1
     8    4    8 ar
     9    4   24 1
    10    5    7 2
    11    5   18 1
    12    5   25 1
    13    6    7 1
    14    6    8 ar
    15    7   12 1
    16    8   18 1
    17    9   10 ar
    18    9   13 1
    19    9   14 ar
    20   10   15 ar
    21   10   20 1
    22   11   15 ar
    23   11   16 ar
    24   11   19 1
    25   12   17 2
    26   12   26 1
    27   13   27 1
    28   13   28 1
    29   13   29 1
    30   14   16 ar
    31   17   19 1
    32   18   30 1
    33   19   31 1
    34   20   32 1
