@<TRIPOS>MOLECULE
*****
   37    39     0     0     0
SMALL
NO_CHARGES

@<TRIPOS>ATOM
      1 C1          3.8538  -11.2983   -5.2481 C.1       1 <0>         0.0000
      2 C2          3.1280  -10.3259   -5.2467 C.1       1 <0>         0.0000
      3 C3          0.8293   -1.1082    1.5849 C.ar      1 <0>         0.0000
      4 C4          0.0072   -1.0228    0.4544 C.ar      1 <0>         0.0000
      5 C5          0.7573   -7.6992   -6.4217 C.ar      1 <0>         0.0000
      6 C6          1.5894   -8.8180   -6.4313 C.ar      1 <0>         0.0000
      7 C7          1.5337   -2.2849    1.8381 C.ar      1 <0>         0.0000
      8 C8         -0.0936   -2.1149   -0.4066 C.ar      1 <0>         0.0000
      9 C9          0.5994   -6.9439   -5.2607 C.ar      1 <0>         0.0000
     10 C10         2.1151   -8.4221   -4.0772 C.ar      1 <0>         0.0000
     11 C11         2.2691   -9.1781   -5.2537 C.ar      1 <0>         0.0000
     12 C12         1.4419   -3.3866    0.9742 C.ar      1 <0>         0.0000
     13 C13         0.6221   -3.2950   -0.1597 C.ar      1 <0>         0.0000
     14 C14         1.2770   -7.2985   -4.0790 C.ar      1 <0>         0.0000
     15 C15         1.5320   -6.6583   -1.6585 C.2       1 <0>         0.0000
     16 C16         2.1853   -4.6717    1.2567 C.3       1 <0>         0.0000
     17 C17         0.4967   -4.4300   -1.1625 C.3       1 <0>         0.0000
     18 C18         1.4461   -5.8595    0.6482 C.3       1 <0>         0.0000
     19 N1          1.2311   -5.6304   -0.7806 N.am      1 <0>         0.0000
     20 N2          1.0744   -6.4671   -2.9582 N.am      1 <0>         0.0000
     21 O1          2.1645   -7.6569   -1.3132 O.2       1 <0>         0.0000
     22 H1          4.4946  -12.1541   -5.2422 H         1 <0>         0.0000
     23 H2          0.9124   -0.2654    2.2661 H         1 <0>         0.0000
     24 H3         -0.5524   -0.1140    0.2495 H         1 <0>         0.0000
     25 H4          0.2253   -7.4094   -7.3238 H         1 <0>         0.0000
     26 H5          1.7179   -9.4118   -7.3306 H         1 <0>         0.0000
     27 H6          2.1631   -2.3591    2.7227 H         1 <0>         0.0000
     28 H7         -0.7350   -2.0509   -1.2842 H         1 <0>         0.0000
     29 H8         -0.0528   -6.0721   -5.2688 H         1 <0>         0.0000
     30 H9          2.6324   -8.7085   -3.1731 H         1 <0>         0.0000
     31 H10         3.1966   -4.6282    0.8338 H         1 <0>         0.0000
     32 H11         2.2923   -4.8154    2.3373 H         1 <0>         0.0000
     33 H12        -0.5739   -4.6483   -1.3139 H         1 <0>         0.0000
     34 H13         0.8946   -4.0590   -2.1146 H         1 <0>         0.0000
     35 H14         2.0163   -6.7812    0.7461 H         1 <0>         0.0000
     36 H15         0.4780   -5.9954    1.1518 H         1 <0>         0.0000
     37 H16         0.4339   -5.7051   -3.1231 H         1 <0>         0.0000
@<TRIPOS>BOND
     1    1    2 3
     2    1   22 1
     3    2   11 1
     4    3    4 ar
     5    3    7 ar
     6    3   23 1
     7    4    8 ar
     8    4   24 1
     9    5    6 ar
    10    5    9 ar
    11    5   25 1
    12    6   11 ar
    13    6   26 1
    14    7   12 ar
    15    7   27 1
    16    8   13 ar
    17    8   28 1
    18    9   14 ar
    19    9   29 1
    20   10   11 ar
    21   10   14 ar
    22   10   30 1
    23   12   13 ar
    24   12   16 1
    25   13   17 1
    26   14   20 1
    27   15   19 am
    28   15   20 am
    29   15   21 2
    30   16   18 1
    31   16   31 1
    32   16   32 1
    33   17   19 1
    34   17   33 1
    35   17   34 1
    36   18   19 1
    37   18   35 1
    38   18   36 1
    39   20   37 1
