@<TRIPOS>MOLECULE
*****
   31    32     0     0     0
SMALL
NO_CHARGES

@<TRIPOS>ATOM
      1 C1         -3.8160    4.1678   -0.8030 C.ar      1 <0>         0.0000
      2 C2         -3.1376    3.0368   -1.2692 C.ar      1 <0>         0.0000
      3 C3         -4.5652    4.1108    0.3746 C.ar      1 <0>         0.0000
      4 C4         -3.9533    1.7583    0.6153 C.ar      1 <0>         0.0000
      5 C5         -3.2000    1.8257   -0.5662 C.ar      1 <0>         0.0000
      6 C6         -4.6134    2.8980    1.0570 C.ar      1 <0>         0.0000
      7 C7         -1.7656   -0.1768    0.0366 C.2       1 <0>         0.0000
      8 C8          0.1062   -0.4696    1.5417 C.3       1 <0>         0.0000
      9 C9          0.0942    1.5015   -0.0112 C.3       1 <0>         0.0000
     10 C10         0.6793   -1.8087    1.0586 C.3       1 <0>         0.0000
     11 C11         1.1294    1.2141   -1.1036 C.3       1 <0>         0.0000
     12 C12        -2.4777    0.5915   -1.0759 C.3       1 <0>         0.0000
     13 N1         -0.5806    0.3152    0.5144 N.am      1 <0>         0.0000
     14 O1         -2.2716   -1.1976    0.5111 O.2       1 <0>         0.0000
     15 F1         -5.3377    2.8260    2.2035 F         1 <0>         0.0000
     16 S1          1.5114   -1.7469   -0.5820 S.3       1 <0>         0.0000
     17 S2          2.4945    0.0973   -0.5771 S.3       1 <0>         0.0000
     18 H1         -3.7608    5.0999   -1.3587 H         1 <0>         0.0000
     19 H2         -2.5598    3.0961   -2.1886 H         1 <0>         0.0000
     20 H3         -5.0998    4.9728    0.7612 H         1 <0>         0.0000
     21 H4         -4.0263    0.8356    1.1838 H         1 <0>         0.0000
     22 H5         -0.5922   -0.6804    2.3575 H         1 <0>         0.0000
     23 H6          0.9152    0.1484    1.9328 H         1 <0>         0.0000
     24 H7          0.5845    2.0053    0.8274 H         1 <0>         0.0000
     25 H8         -0.6508    2.2019   -0.3937 H         1 <0>         0.0000
     26 H9          1.3758   -2.1885    1.8111 H         1 <0>         0.0000
     27 H10        -0.1243   -2.5351    0.9160 H         1 <0>         0.0000
     28 H11         0.6625    0.7764   -1.9896 H         1 <0>         0.0000
     29 H12         1.6159    2.1517   -1.3971 H         1 <0>         0.0000
     30 H13        -3.1993   -0.1152   -1.4936 H         1 <0>         0.0000
     31 H14        -1.7877    0.8668   -1.8780 H         1 <0>         0.0000
@<TRIPOS>BOND
     1    1    2 ar
     2    1    3 ar
     3    1   18 1
     4    2    5 ar
     5    2   19 1
     6    3    6 ar
     7    3   20 1
     8    4    5 ar
     9    4    6 ar
    10    4   21 1
    11    5   12 1
    12    6   15 1
    13    7   12 1
    14    7   13 am
    15    7   14 2
    16    8   10 1
    17    8   13 1
    18    8   22 1
    19    8   23 1
    20    9   11 1
    21    9   13 1
    22    9   24 1
    23    9   25 1
    24   10   16 1
    25   10   26 1
    26   10   27 1
    27   11   17 1
    28   11   28 1
    29   11   29 1
    30   12   30 1
    31   12   31 1
    32   16   17 1
