@<TRIPOS>MOLECULE
*****
   15    14     0     0     0
SMALL
NO_CHARGES

@<TRIPOS>ATOM
      1 C1          1.1187    0.5990   -0.3415 C.2       1 <0>         0.0000
      2 C2          0.4549   -0.5025    0.0068 C.2       1 <0>         0.0000
      3 C3          0.9337   -1.4489    1.0754 C.2       1 <0>         0.0000
      4 O1          1.9619   -1.2718    1.6888 O.2       1 <0>         0.0000
      5 O2         -0.6411    0.1088   -3.0051 O.2       1 <0>         0.0000
      6 O3          0.1320   -2.5119    1.3069 O.3       1 <0>         0.0000
      7 O4         -2.4553   -1.6053   -2.2156 O.3       1 <0>         0.0000
      8 O5         -0.0654   -2.3790   -2.3894 O.3       1 <0>         0.0000
      9 O6         -0.7841   -0.8781   -0.5526 O.3       1 <0>         0.0000
     10 P1         -0.9483   -1.0585   -2.1571 P.3       1 <0>         0.0000
     11 H1          0.7553    1.2659   -1.1155 H         1 <0>         0.0000
     12 H2          2.0550    0.8112    0.1621 H         1 <0>         0.0000
     13 H3         -0.6373   -2.4684    0.7077 H         1 <0>         0.0000
     14 H4         -3.0763   -0.9213   -2.5209 H         1 <0>         0.0000
     15 H5          0.3311   -2.4128   -3.2770 H         1 <0>         0.0000
@<TRIPOS>BOND
     1    1    2 2
     2    1   11 1
     3    1   12 1
     4    2    3 1
     5    2    9 1
     6    3    4 2
     7    3    6 1
     8    5   10 2
     9    6   13 1
    10    7   10 1
    11    7   14 1
    12    8   10 1
    13    8   15 1
    14    9   10 1
