@<TRIPOS>MOLECULE
*****
   37    39     0     0     0
SMALL
NO_CHARGES

@<TRIPOS>ATOM
      1 C1          9.7470   -5.1801   -0.8623 C.1       1 <0>         0.0000
      2 C2          8.7201   -5.8238   -0.9265 C.1       1 <0>         0.0000
      3 C3         -1.4777   -1.4737   -0.0821 C.ar      1 <0>         0.0000
      4 C4         -0.2087   -0.9844    0.2518 C.ar      1 <0>         0.0000
      5 C5          6.3339   -8.6459   -1.4532 C.ar      1 <0>         0.0000
      6 C6          7.5313   -7.9356   -1.3907 C.ar      1 <0>         0.0000
      7 C7         -1.6487   -2.8356   -0.3289 C.ar      1 <0>         0.0000
      8 C8          0.8695   -1.8649    0.3293 C.ar      1 <0>         0.0000
      9 C9          5.1083   -8.0518   -1.1400 C.ar      1 <0>         0.0000
     10 C10         6.2813   -5.9781   -0.6864 C.ar      1 <0>         0.0000
     11 C11         7.5074   -6.5833   -1.0019 C.ar      1 <0>         0.0000
     12 C12        -0.5683   -3.7278   -0.2580 C.ar      1 <0>         0.0000
     13 C13         0.7016   -3.2327    0.0709 C.ar      1 <0>         0.0000
     14 C14         5.0798   -6.7006   -0.7524 C.ar      1 <0>         0.0000
     15 C15         2.6051   -6.4913   -0.3492 C.2       1 <0>         0.0000
     16 C16        -0.7522   -5.2079   -0.5010 C.3       1 <0>         0.0000
     17 C17         1.9284   -4.1272    0.1329 C.3       1 <0>         0.0000
     18 C18         0.2940   -6.0072    0.2693 C.3       1 <0>         0.0000
     19 N1          1.6343   -5.5393   -0.0857 N.am      1 <0>         0.0000
     20 N2          3.9017   -5.9962   -0.4292 N.am      1 <0>         0.0000
     21 O1          2.3336   -7.6826   -0.5086 O.2       1 <0>         0.0000
     22 H1         10.6546   -4.6175   -0.8072 H         1 <0>         0.0000
     23 H2         -2.3268   -0.7978   -0.1409 H         1 <0>         0.0000
     24 H3         -0.0636    0.0735    0.4536 H         1 <0>         0.0000
     25 H4          6.3461   -9.6910   -1.7515 H         1 <0>         0.0000
     26 H5          8.4776   -8.4073   -1.6354 H         1 <0>         0.0000
     27 H6         -2.6359   -3.2211   -0.5755 H         1 <0>         0.0000
     28 H7          1.8560   -1.4861    0.5921 H         1 <0>         0.0000
     29 H8          4.1865   -8.6137   -1.1845 H         1 <0>         0.0000
     30 H9          6.2751   -4.9319   -0.3886 H         1 <0>         0.0000
     31 H10        -1.7566   -5.5186   -0.1939 H         1 <0>         0.0000
     32 H11        -0.6554   -5.4338   -1.5702 H         1 <0>         0.0000
     33 H12         2.6126   -3.7814   -0.6514 H         1 <0>         0.0000
     34 H13         2.4300   -3.9700    1.1024 H         1 <0>         0.0000
     35 H14         0.1333   -5.8893    1.3508 H         1 <0>         0.0000
     36 H15         0.2473   -7.0677    0.0299 H         1 <0>         0.0000
     37 H16         4.0562   -5.0344   -0.1662 H         1 <0>         0.0000
@<TRIPOS>BOND
     1    1    2 3
     2    1   22 1
     3    2   11 1
     4    3    4 ar
     5    3    7 ar
     6    3   23 1
     7    4    8 ar
     8    4   24 1
     9    5    6 ar
    10    5    9 ar
    11    5   25 1
    12    6   11 ar
    13    6   26 1
    14    7   12 ar
    15    7   27 1
    16    8   13 ar
    17    8   28 1
    18    9   14 ar
    19    9   29 1
    20   10   11 ar
    21   10   14 ar
    22   10   30 1
    23   12   13 ar
    24   12   16 1
    25   13   17 1
    26   14   20 1
    27   15   19 am
    28   15   20 am
    29   15   21 2
    30   16   18 1
    31   16   31 1
    32   16   32 1
    33   17   19 1
    34   17   33 1
    35   17   34 1
    36   18   19 1
    37   18   35 1
    38   18   36 1
    39   20   37 1
