@<TRIPOS>MOLECULE
*****
   31    32     0     0     0
SMALL
NO_CHARGES

@<TRIPOS>ATOM
      1 C1         -4.9737    2.6649    1.1653 C.ar      1 <0>         0.0000
      2 C2         -4.1830    1.6397    0.6420 C.ar      1 <0>         0.0000
      3 C3         -5.0722    3.8989    0.5126 C.ar      1 <0>         0.0000
      4 C4         -3.5638    3.0624   -1.2129 C.ar      1 <0>         0.0000
      5 C5         -3.4696    1.8309   -0.5515 C.ar      1 <0>         0.0000
      6 C6         -4.3603    4.0660   -0.6691 C.ar      1 <0>         0.0000
      7 C7         -1.7814    0.0008   -0.0674 C.2       1 <0>         0.0000
      8 C8          0.1620   -0.1106    1.3702 C.3       1 <0>         0.0000
      9 C9         -0.1484    1.9015   -0.0964 C.3       1 <0>         0.0000
     10 C10         0.8827   -1.3465    0.8153 C.3       1 <0>         0.0000
     11 C11         0.8810    1.7906   -1.2256 C.3       1 <0>         0.0000
     12 C12        -2.6183    0.7141   -1.1290 C.3       1 <0>         0.0000
     13 N1         -0.6516    0.6197    0.3966 N.am      1 <0>         0.0000
     14 O1         -2.1394   -1.0933    0.3774 O.2       1 <0>         0.0000
     15 F1         -4.4384    5.2556   -1.3223 F         1 <0>         0.0000
     16 S1          1.6574   -1.1132   -0.8384 S.3       1 <0>         0.0000
     17 S2          2.3933    0.8417   -0.7786 S.3       1 <0>         0.0000
     18 H1         -5.5215    2.5056    2.0901 H         1 <0>         0.0000
     19 H2         -4.1158    0.6853    1.1567 H         1 <0>         0.0000
     20 H3         -5.6796    4.7106    0.9006 H         1 <0>         0.0000
     21 H4         -3.0325    3.2509   -2.1422 H         1 <0>         0.0000
     22 H5         -0.4771   -0.4401    2.1953 H         1 <0>         0.0000
     23 H6          0.8992    0.5896    1.7646 H         1 <0>         0.0000
     24 H7          0.2993    2.4320    0.7496 H         1 <0>         0.0000
     25 H8         -0.9869    2.5153   -0.4306 H         1 <0>         0.0000
     26 H9          1.6402   -1.6679    1.5355 H         1 <0>         0.0000
     27 H10         0.1710   -2.1602    0.6575 H         1 <0>         0.0000
     28 H11         0.4477    1.3286   -2.1162 H         1 <0>         0.0000
     29 H12         1.2338    2.7935   -1.4934 H         1 <0>         0.0000
     30 H13        -3.2616   -0.0610   -1.5529 H         1 <0>         0.0000
     31 H14        -1.9916    1.0976   -1.9388 H         1 <0>         0.0000
@<TRIPOS>BOND
     1    1    2 ar
     2    1    3 ar
     3    1   18 1
     4    2    5 ar
     5    2   19 1
     6    3    6 ar
     7    3   20 1
     8    4    5 ar
     9    4    6 ar
    10    4   21 1
    11    5   12 1
    12    6   15 1
    13    7   12 1
    14    7   13 am
    15    7   14 2
    16    8   10 1
    17    8   13 1
    18    8   22 1
    19    8   23 1
    20    9   11 1
    21    9   13 1
    22    9   24 1
    23    9   25 1
    24   10   16 1
    25   10   26 1
    26   10   27 1
    27   11   17 1
    28   11   28 1
    29   11   29 1
    30   12   30 1
    31   12   31 1
    32   16   17 1
