@<TRIPOS>MOLECULE
*****
   31    32     0     0     0
SMALL
NO_CHARGES

@<TRIPOS>ATOM
      1 C1         -0.1168   -3.2403    0.0285 C.1       1 <0>         0.0000
      2 C2          0.6183   -2.6078    0.7577 C.1       1 <0>         0.0000
      3 C3          2.1246    0.2468    2.6278 C.ar      1 <0>         0.0000
      4 C4          8.0445   -5.2544    5.1837 C.ar      1 <0>         0.0000
      5 C5          1.2752   -0.4742    1.7888 C.ar      1 <0>         0.0000
      6 C6          6.9538   -4.9563    4.3678 C.ar      1 <0>         0.0000
      7 C7          8.2602   -4.5364    6.3644 C.ar      1 <0>         0.0000
      8 C8          3.1702   -0.3908    3.2932 C.ar      1 <0>         0.0000
      9 C9          2.5366   -2.5067    2.2845 C.ar      1 <0>         0.0000
     10 C10         6.3011   -3.2119    5.9172 C.ar      1 <0>         0.0000
     11 C11         1.4828   -1.8549    1.6180 C.ar      1 <0>         0.0000
     12 C12         6.0821   -3.9183    4.7243 C.ar      1 <0>         0.0000
     13 C13         7.3842   -3.5129    6.7538 C.ar      1 <0>         0.0000
     14 C14         3.3829   -1.7715    3.1261 C.ar      1 <0>         0.0000
     15 C15         4.9274   -3.6422    3.8029 C.2       1 <0>         0.0000
     16 C16         7.5774   -2.7818    8.0627 C.3       1 <0>         0.0000
     17 N1          4.4549   -2.3455    3.8406 N.am      1 <0>         0.0000
     18 O1          4.4646   -4.5143    3.0706 O.2       1 <0>         0.0000
     19 H1         -0.7610   -3.8031   -0.6131 H         1 <0>         0.0000
     20 H2          1.9737    1.3138    2.7667 H         1 <0>         0.0000
     21 H3          8.7306   -6.0487    4.9013 H         1 <0>         0.0000
     22 H4          0.4590    0.0151    1.2670 H         1 <0>         0.0000
     23 H5          6.7611   -5.5105    3.4548 H         1 <0>         0.0000
     24 H6          9.1127   -4.7793    6.9951 H         1 <0>         0.0000
     25 H7          3.8260    0.1824    3.9461 H         1 <0>         0.0000
     26 H8          2.6979   -3.5660    2.1452 H         1 <0>         0.0000
     27 H9          5.6006   -2.4428    6.2376 H         1 <0>         0.0000
     28 H10         8.6356   -2.7217    8.3331 H         1 <0>         0.0000
     29 H11         7.1815   -1.7629    8.0168 H         1 <0>         0.0000
     30 H12         7.0589   -3.2994    8.8786 H         1 <0>         0.0000
     31 H13         5.0001   -1.6913    4.3859 H         1 <0>         0.0000
@<TRIPOS>BOND
     1    1    2 3
     2    1   19 1
     3    2   11 1
     4    3    5 ar
     5    3    8 ar
     6    3   20 1
     7    4    6 ar
     8    4    7 ar
     9    4   21 1
    10    5   11 ar
    11    5   22 1
    12    6   12 ar
    13    6   23 1
    14    7   13 ar
    15    7   24 1
    16    8   14 ar
    17    8   25 1
    18    9   11 ar
    19    9   14 ar
    20    9   26 1
    21   10   12 ar
    22   10   13 ar
    23   10   27 1
    24   12   15 1
    25   13   16 1
    26   14   17 1
    27   15   17 am
    28   15   18 2
    29   16   28 1
    30   16   29 1
    31   16   30 1
    32   17   31 1
