@<TRIPOS>MOLECULE
*****
   37    39     0     0     0
SMALL
NO_CHARGES

@<TRIPOS>ATOM
      1 C1          5.8078   -3.9306   11.3146 C.1       1 <0>         0.0000
      2 C2          4.7481   -4.0368   10.7326 C.1       1 <0>         0.0000
      3 C3          1.5649   -1.2143   -0.2112 C.ar      1 <0>         0.0000
      4 C4          0.2136   -1.3809    0.1158 C.ar      1 <0>         0.0000
      5 C5          1.1392   -4.6843   10.0310 C.ar      1 <0>         0.0000
      6 C6          2.3399   -4.5724   10.7302 C.ar      1 <0>         0.0000
      7 C7          2.5468   -1.6815    0.6622 C.ar      1 <0>         0.0000
      8 C8         -0.1343   -2.0096    1.3109 C.ar      1 <0>         0.0000
      9 C9          1.0542   -4.3995    8.6657 C.ar      1 <0>         0.0000
     10 C10         3.4224   -3.8766    8.6719 C.ar      1 <0>         0.0000
     11 C11         3.4979   -4.1624   10.0439 C.ar      1 <0>         0.0000
     12 C12         2.2041   -2.3144    1.8665 C.ar      1 <0>         0.0000
     13 C13         0.8490   -2.4766    2.1952 C.ar      1 <0>         0.0000
     14 C14         2.2096   -3.9920    7.9757 C.ar      1 <0>         0.0000
     15 C15         1.1633   -3.6038    5.7225 C.2       1 <0>         0.0000
     16 C16         3.2816   -2.8141    2.8061 C.3       1 <0>         0.0000
     17 C17         0.4056   -3.1650    3.4716 C.3       1 <0>         0.0000
     18 C18         2.7279   -3.8726    3.7574 C.3       1 <0>         0.0000
     19 N1          1.5163   -3.3612    4.4020 N.am      1 <0>         0.0000
     20 N2          2.2407   -3.7096    6.5952 N.am      1 <0>         0.0000
     21 O1         -0.0106   -3.6718    6.0847 O.2       1 <0>         0.0000
     22 H1          6.7387   -3.8377   11.8324 H         1 <0>         0.0000
     23 H2          1.8484   -0.7271   -1.1405 H         1 <0>         0.0000
     24 H3         -0.5616   -1.0213   -0.5558 H         1 <0>         0.0000
     25 H4          0.2407   -4.9973   10.5562 H         1 <0>         0.0000
     26 H5          2.3943   -4.7939   11.7913 H         1 <0>         0.0000
     27 H6          3.5981   -1.5593    0.4083 H         1 <0>         0.0000
     28 H7         -1.1842   -2.1374    1.5677 H         1 <0>         0.0000
     29 H8          0.1140   -4.4745    8.1381 H         1 <0>         0.0000
     30 H9          4.3247   -3.5636    8.1512 H         1 <0>         0.0000
     31 H10         4.1179   -3.2312    2.2339 H         1 <0>         0.0000
     32 H11         3.6786   -1.9766    3.3941 H         1 <0>         0.0000
     33 H12        -0.3575   -2.5720    3.9769 H         1 <0>         0.0000
     34 H13        -0.0624   -4.1318    3.2281 H         1 <0>         0.0000
     35 H14         2.4797   -4.7867    3.1965 H         1 <0>         0.0000
     36 H15         3.4734   -4.1579    4.4996 H         1 <0>         0.0000
     37 H16         3.1308   -3.3713    6.2584 H         1 <0>         0.0000
@<TRIPOS>BOND
     1    1    2 3
     2    1   22 1
     3    2   11 1
     4    3    4 ar
     5    3    7 ar
     6    3   23 1
     7    4    8 ar
     8    4   24 1
     9    5    6 ar
    10    5    9 ar
    11    5   25 1
    12    6   11 ar
    13    6   26 1
    14    7   12 ar
    15    7   27 1
    16    8   13 ar
    17    8   28 1
    18    9   14 ar
    19    9   29 1
    20   10   11 ar
    21   10   14 ar
    22   10   30 1
    23   12   13 ar
    24   12   16 1
    25   13   17 1
    26   14   20 1
    27   15   19 am
    28   15   20 am
    29   15   21 2
    30   16   18 1
    31   16   31 1
    32   16   32 1
    33   17   19 1
    34   17   33 1
    35   17   34 1
    36   18   19 1
    37   18   35 1
    38   18   36 1
    39   20   37 1
