@<TRIPOS>MOLECULE
*****
   25    26     0     0     0
SMALL
NO_CHARGES

@<TRIPOS>ATOM
      1 C1         -3.9982    0.0178   -0.0618 C.ar      1 <0>         0.0000
      2 C2         -3.3903    0.0373   -1.3220 C.ar      1 <0>         0.0000
      3 C3          1.4533   -1.9626    0.2023 C.ar      1 <0>         0.0000
      4 C4          2.7873    0.0770    0.4326 C.ar      1 <0>         0.0000
      5 C5          0.5393   -1.4664    1.1322 C.ar      1 <0>         0.0000
      6 C6          1.8724    0.5698    1.3604 C.ar      1 <0>         0.0000
      7 C7         -3.2905    0.5053    1.0365 C.ar      1 <0>         0.0000
      8 C8         -2.0933    0.5442   -1.4276 C.ar      1 <0>         0.0000
      9 C9          2.5552   -1.1781   -0.1287 C.ar      1 <0>         0.0000
     10 C10         0.7618   -0.2089    1.6964 C.ar      1 <0>         0.0000
     11 C11        -2.0009    0.9893    0.8013 C.ar      1 <0>         0.0000
     12 N1         -1.3983    1.0129   -0.3789 N.ar      1 <0>         0.0000
     13 O1         -1.3529   -0.6141    3.2251 O.2       1 <0>         0.0000
     14 O2          0.2106    1.3169    3.8088 O.2       1 <0>         0.0000
     15 O3         -1.2734    1.5286    1.8648 O.3       1 <0>         0.0000
     16 F1          3.4411   -1.6551   -1.0321 F         1 <0>         0.0000
     17 S1         -0.4335    0.4509    2.8374 S.o2      1 <0>         0.0000
     18 H1         -5.0054   -0.3699    0.0644 H         1 <0>         0.0000
     19 H2         -3.9067   -0.3301   -2.2037 H         1 <0>         0.0000
     20 H3          1.3235   -2.9358   -0.2600 H         1 <0>         0.0000
     21 H4          3.6650    0.6450    0.1414 H         1 <0>         0.0000
     22 H5         -0.3331   -2.0434    1.4200 H         1 <0>         0.0000
     23 H6          2.0147    1.5435    1.8176 H         1 <0>         0.0000
     24 H7         -3.6993    0.5113    2.0405 H         1 <0>         0.0000
     25 H8         -1.5848    0.5768   -2.3892 H         1 <0>         0.0000
@<TRIPOS>BOND
     1    1    2 ar
     2    1    7 ar
     3    1   18 1
     4    2    8 ar
     5    2   19 1
     6    3    5 ar
     7    3    9 ar
     8    3   20 1
     9    4    6 ar
    10    4    9 ar
    11    4   21 1
    12    5   10 ar
    13    5   22 1
    14    6   10 ar
    15    6   23 1
    16    7   11 ar
    17    7   24 1
    18    8   12 ar
    19    8   25 1
    20    9   16 1
    21   10   17 1
    22   11   12 ar
    23   11   15 1
    24   13   17 2
    25   14   17 2
    26   15   17 1
