@<TRIPOS>MOLECULE
*****
   35    36     0     0     0
SMALL
NO_CHARGES

@<TRIPOS>ATOM
      1 C1          1.2887   -4.4364   -4.5729 C.2       1 <0>         0.0000
      2 C2          2.3632   -3.5435   -4.7590 C.2       1 <0>         0.0000
      3 C3          0.3587   -1.6015   -1.5856 C.2       1 <0>         0.0000
      4 C4          0.2827   -0.5048    2.0200 C.3       1 <0>         0.0000
      5 C5          0.4716   -1.5621    0.9198 C.3       1 <0>         0.0000
      6 C6         -0.9798    0.0201   -0.3238 C.3       1 <0>         0.0000
      7 C7         -0.5009    1.2834    0.4270 C.3       1 <0>         0.0000
      8 C8          0.5801    0.9094    1.4873 C.3       1 <0>         0.0000
      9 C9         -1.7286    2.0156    0.9823 C.3       1 <0>         0.0000
     10 C10         0.6889    1.9135    2.6307 C.3       1 <0>         0.0000
     11 C11         1.3600   -2.7712   -1.5112 C.3       1 <0>         0.0000
     12 N1          0.8158   -4.2818   -3.3314 N.2       1 <0>         0.0000
     13 N2          2.5408   -2.8484   -3.6303 N.2       1 <0>         0.0000
     14 N3          1.6026   -3.3351   -2.8148 N.pl3     1 <0>         0.0000
     15 N4          0.0620   -1.0096   -0.3825 N.am      1 <0>         0.0000
     16 O1         -0.1058   -1.2314   -2.6570 O.2       1 <0>         0.0000
     17 O2          1.8873    0.9191    0.8702 O.3       1 <0>         0.0000
     18 H1          0.8545   -5.1610   -5.2483 H         1 <0>         0.0000
     19 H2          2.9977   -3.3799   -5.6194 H         1 <0>         0.0000
     20 H3         -0.7410   -0.5345    2.4096 H         1 <0>         0.0000
     21 H4          0.9509   -0.7402    2.8534 H         1 <0>         0.0000
     22 H5          1.5255   -1.8419    0.8773 H         1 <0>         0.0000
     23 H6         -0.1061   -2.4660    1.1582 H         1 <0>         0.0000
     24 H7         -1.8580   -0.4032    0.1838 H         1 <0>         0.0000
     25 H8         -1.2750    0.2531   -1.3458 H         1 <0>         0.0000
     26 H9         -0.0007    1.9489   -0.2862 H         1 <0>         0.0000
     27 H10        -2.2196    1.4349    1.7720 H         1 <0>         0.0000
     28 H11        -2.4649    2.1718    0.1860 H         1 <0>         0.0000
     29 H12        -1.4718    2.9955    1.3911 H         1 <0>         0.0000
     30 H13         0.8346    2.9255    2.2423 H         1 <0>         0.0000
     31 H14         1.5569    1.6610    3.2465 H         1 <0>         0.0000
     32 H15        -0.2015    1.9032    3.2648 H         1 <0>         0.0000
     33 H16         0.9778   -3.5660   -0.8676 H         1 <0>         0.0000
     34 H17         2.3186   -2.4314   -1.1136 H         1 <0>         0.0000
     35 H18         1.8039    0.5005   -0.0025 H         1 <0>         0.0000
@<TRIPOS>BOND
     1    1    2 1
     2    1   12 2
     3    1   18 1
     4    2   13 2
     5    2   19 1
     6    3   11 1
     7    3   15 am
     8    3   16 2
     9    4    5 1
    10    4    8 1
    11    4   20 1
    12    4   21 1
    13    5   15 1
    14    5   22 1
    15    5   23 1
    16    6    7 1
    17    6   15 1
    18    6   24 1
    19    6   25 1
    20    7    8 1
    21    7    9 1
    22    7   26 1
    23    8   10 1
    24    8   17 1
    25    9   27 1
    26    9   28 1
    27    9   29 1
    28   10   30 1
    29   10   31 1
    30   10   32 1
    31   11   14 1
    32   11   33 1
    33   11   34 1
    34   12   14 1
    35   13   14 1
    36   17   35 1
