@<TRIPOS>MOLECULE
*****
   32    34     0     0     0
SMALL
NO_CHARGES

@<TRIPOS>ATOM
      1 C1         -1.3673   -2.0015    4.6202 C.ar      1 <0>         0.0000
      2 C2         -1.3168   -2.6780    3.3810 C.ar      1 <0>         0.0000
      3 C3         -2.1713   -0.8785    4.7965 C.ar      1 <0>         0.0000
      4 C4         -2.0709   -2.2432    2.2928 C.ar      1 <0>         0.0000
      5 C5         -4.3146    0.6126    2.2212 C.2       1 <0>         0.0000
      6 C6         -2.9443   -0.4158    3.7154 C.ar      1 <0>         0.0000
      7 C7         -3.8682    0.6836    3.5308 C.2       1 <0>         0.0000
      8 C8         -2.8766   -1.1141    2.4770 C.ar      1 <0>         0.0000
      9 C9         -7.9177    6.5634    4.8751 C.ar      1 <0>         0.0000
     10 C10        -7.2396    6.2904    6.0924 C.ar      1 <0>         0.0000
     11 C11        -6.2499    4.5272    5.1016 C.ar      1 <0>         0.0000
     12 C12        -4.2517    1.6673    4.5231 C.2       1 <0>         0.0000
     13 C13        -8.8694    7.7150    4.7248 C.3       1 <0>         0.0000
     14 N1         -7.6949    5.7642    3.8367 N.ar      1 <0>         0.0000
     15 N2         -6.4072    5.2811    6.2198 N.ar      1 <0>         0.0000
     16 N3         -6.8556    4.7256    3.9224 N.ar      1 <0>         0.0000
     17 N4         -5.0877    2.6105    4.2516 N.2       1 <0>         0.0000
     18 N5         -3.7226   -0.4602    1.5929 N.pl3     1 <0>         0.0000
     19 N6         -5.3774    3.4793    5.2556 N.pl3     1 <0>         0.0000
     20 O1         -7.4576    7.0954    7.1553 O.3       1 <0>         0.0000
     21 H1         -0.7663   -2.3673    5.4484 H         1 <0>         0.0000
     22 H2         -0.6797   -3.5516    3.2744 H         1 <0>         0.0000
     23 H3         -2.1965   -0.3717    5.7579 H         1 <0>         0.0000
     24 H4         -2.0319   -2.7640    1.3392 H         1 <0>         0.0000
     25 H5         -5.0130    1.2591    1.7076 H         1 <0>         0.0000
     26 H6         -3.7974    1.5739    5.5200 H         1 <0>         0.0000
     27 H7         -8.3699    8.6695    4.9232 H         1 <0>         0.0000
     28 H8         -9.2634    7.7214    3.7069 H         1 <0>         0.0000
     29 H9         -9.7019    7.6350    5.4323 H         1 <0>         0.0000
     30 H10        -3.8833   -0.7274    0.6320 H         1 <0>         0.0000
     31 H11        -4.9506    3.3836    6.1768 H         1 <0>         0.0000
     32 H12        -6.9100    6.7507    7.8861 H         1 <0>         0.0000
@<TRIPOS>BOND
     1    1    2 ar
     2    1    3 ar
     3    1   21 1
     4    2    4 ar
     5    2   22 1
     6    3    6 ar
     7    3   23 1
     8    4    8 ar
     9    4   24 1
    10    5    7 2
    11    5   18 1
    12    5   25 1
    13    6    7 1
    14    6    8 ar
    15    7   12 1
    16    8   18 1
    17    9   10 ar
    18    9   13 1
    19    9   14 ar
    20   10   15 ar
    21   10   20 1
    22   11   15 ar
    23   11   16 ar
    24   11   19 1
    25   12   17 2
    26   12   26 1
    27   13   27 1
    28   13   28 1
    29   13   29 1
    30   14   16 ar
    31   17   19 1
    32   18   30 1
    33   19   31 1
    34   20   32 1
