@<TRIPOS>MOLECULE
*****
   38    40     0     0     0
SMALL
NO_CHARGES

@<TRIPOS>ATOM
      1 C1          2.2457   -0.5775   -0.0941 C.ar      1 <0>         0.0000
      2 C2          2.6764   -1.9705    1.8207 C.ar      1 <0>         0.0000
      3 C3          1.1755    0.0230    0.5723 C.ar      1 <0>         0.0000
      4 C4          1.6043   -1.3899    2.4960 C.ar      1 <0>         0.0000
      5 C5         -2.2031    0.9808    3.2555 C.2       1 <0>         0.0000
      6 C6          3.0134   -1.5802    0.5146 C.ar      1 <0>         0.0000
      7 C7          0.8503   -0.3964    1.8640 C.ar      1 <0>         0.0000
      8 C8         -1.2180    1.0581    4.2894 C.2       1 <0>         0.0000
      9 C9         -1.5182    0.4122    2.1776 C.2       1 <0>         0.0000
     10 C10        -6.7937    1.3071    1.9477 C.2       1 <0>         0.0000
     11 C11        -6.2059    2.8405    3.4044 C.2       1 <0>         0.0000
     12 C12        -3.5772    1.4052    3.3791 C.2       1 <0>         0.0000
     13 C13         4.1927   -2.2006   -0.1971 C.3       1 <0>         0.0000
     14 C14        -1.3821    1.5960    5.6778 C.3       1 <0>         0.0000
     15 C15        -6.7071    0.1705    0.9902 C.3       1 <0>         0.0000
     16 N1         -0.0471    0.5851    3.8784 N.2       1 <0>         0.0000
     17 N2         -7.8701    1.9767    2.2853 N.2       1 <0>         0.0000
     18 N3         -7.4978    2.9546    3.2035 N.2       1 <0>         0.0000
     19 N4         -4.4215    1.3228    2.4067 N.2       1 <0>         0.0000
     20 N5         -0.2350    0.1964    2.5747 N.pl3     1 <0>         0.0000
     21 N6         -5.6991    1.7978    2.6407 N.pl3     1 <0>         0.0000
     22 S1         -5.2384    3.9380    4.3923 S.3       1 <0>         0.0000
     23 Cl1        -2.1114   -0.0472    0.6354 Cl        1 <0>         0.0000
     24 H1          2.4918   -0.2491   -1.1009 H         1 <0>         0.0000
     25 H2          3.2577   -2.7451    2.3155 H         1 <0>         0.0000
     26 H3          0.6090    0.8149    0.0942 H         1 <0>         0.0000
     27 H4          1.3473   -1.6918    3.5060 H         1 <0>         0.0000
     28 H5         -3.8602    1.7850    4.3641 H         1 <0>         0.0000
     29 H6          5.1290   -1.7172    0.1067 H         1 <0>         0.0000
     30 H7          4.2843   -3.2656    0.0368 H         1 <0>         0.0000
     31 H8          4.1052   -2.0974   -1.2822 H         1 <0>         0.0000
     32 H9         -2.1340    1.0307    6.2388 H         1 <0>         0.0000
     33 H10        -0.4310    1.5286    6.2097 H         1 <0>         0.0000
     34 H11        -1.6985    2.6443    5.6631 H         1 <0>         0.0000
     35 H12        -5.9790    0.3800    0.2010 H         1 <0>         0.0000
     36 H13        -6.3909   -0.7493    1.4925 H         1 <0>         0.0000
     37 H14        -7.6922    0.0161    0.5476 H         1 <0>         0.0000
     38 H15        -6.2462    4.8285    4.4916 H         1 <0>         0.0000
@<TRIPOS>BOND
     1    1    3 ar
     2    1    6 ar
     3    1   24 1
     4    2    4 ar
     5    2    6 ar
     6    2   25 1
     7    3    7 ar
     8    3   26 1
     9    4    7 ar
    10    4   27 1
    11    5    8 1
    12    5    9 2
    13    5   12 1
    14    6   13 1
    15    7   20 1
    16    8   14 1
    17    8   16 2
    18    9   20 1
    19    9   23 1
    20   10   15 1
    21   10   17 2
    22   10   21 1
    23   11   18 2
    24   11   21 1
    25   11   22 1
    26   12   19 2
    27   12   28 1
    28   13   29 1
    29   13   30 1
    30   13   31 1
    31   14   32 1
    32   14   33 1
    33   14   34 1
    34   15   35 1
    35   15   36 1
    36   15   37 1
    37   16   20 1
    38   17   18 1
    39   19   21 1
    40   22   38 1
