@<TRIPOS>MOLECULE
*****
   18    18     0     0     0
SMALL
NO_CHARGES

@<TRIPOS>ATOM
      1 C1          0.0506   -0.8847   -0.9040 C.2       1 <0>         0.0000
      2 C2          0.7122   -0.0730    0.9909 C.2       1 <0>         0.0000
      3 C3          0.0771    0.6553   -1.0451 C.3       1 <0>         0.0000
      4 C4          1.0943    2.3633    0.5407 C.3       1 <0>         0.0000
      5 N1          0.4749   -1.2113    0.3930 N.2       1 <0>         0.0000
      6 N2          0.4344    1.0846    0.3097 N.pl3     1 <0>         0.0000
      7 N3          1.2051   -0.0211    2.2820 N.pl3     1 <0>         0.0000
      8 O1         -0.2959   -1.6538   -1.7769 O.2       1 <0>         0.0000
      9 O2          2.7648   -2.2271    2.5677 O.2       1 <0>         0.0000
     10 P1          1.6800   -1.4144    3.1310 P.3       1 <0>         0.0000
     11 Cl1        -0.0273   -2.4376    3.5650 Cl        1 <0>         0.0000
     12 Cl2         2.1395   -0.4825    4.9152 Cl        1 <0>         0.0000
     13 H1          0.8379    0.9563   -1.7745 H         1 <0>         0.0000
     14 H2         -0.8952    1.0443   -1.3577 H         1 <0>         0.0000
     15 H3          2.1379    2.3602    0.1984 H         1 <0>         0.0000
     16 H4          1.0719    2.6298    1.6005 H         1 <0>         0.0000
     17 H5          0.5475    3.1413    0.0043 H         1 <0>         0.0000
     18 H6          1.1274    0.8464    2.8003 H         1 <0>         0.0000
@<TRIPOS>BOND
     1    1    3 1
     2    1    5 1
     3    1    8 2
     4    2    5 2
     5    2    6 1
     6    2    7 1
     7    3    6 1
     8    3   13 1
     9    3   14 1
    10    4    6 1
    11    4   15 1
    12    4   16 1
    13    4   17 1
    14    7   10 1
    15    7   18 1
    16    9   10 2
    17   10   11 1
    18   10   12 1
