@<TRIPOS>MOLECULE
*****
   31    32     0     0     0
SMALL
NO_CHARGES

@<TRIPOS>ATOM
      1 C1          4.2164   -0.9720   -1.4853 C.ar      1 <0>         0.0000
      2 C2          3.1917   -0.1156   -1.8889 C.ar      1 <0>         0.0000
      3 C3          4.0765   -2.3596   -1.5975 C.ar      1 <0>         0.0000
      4 C4          1.8552   -2.0182   -2.5460 C.ar      1 <0>         0.0000
      5 C5          1.9992   -0.6318   -2.4172 C.ar      1 <0>         0.0000
      6 C6          2.8916   -2.8497   -2.1313 C.ar      1 <0>         0.0000
      7 C7          0.4103    1.1241   -1.5791 C.2       1 <0>         0.0000
      8 C8         -0.7185    1.3426    0.5451 C.3       1 <0>         0.0000
      9 C9         -0.8737   -0.8401   -0.6945 C.3       1 <0>         0.0000
     10 C10         0.4560    1.5034    1.5194 C.3       1 <0>         0.0000
     11 C11        -0.3296   -1.7963    0.3987 C.3       1 <0>         0.0000
     12 C12         0.8724    0.3118   -2.7940 C.3       1 <0>         0.0000
     13 N1         -0.3897    0.5321   -0.6334 N.am      1 <0>         0.0000
     14 O1          0.7928    2.2899   -1.4455 O.2       1 <0>         0.0000
     15 F1          2.7289   -4.1946   -2.2549 F         1 <0>         0.0000
     16 S1          0.8559    0.0057    2.4983 S.3       1 <0>         0.0000
     17 S2          1.3455   -1.3924    1.0197 S.3       1 <0>         0.0000
     18 H1          5.1316   -0.5609   -1.0682 H         1 <0>         0.0000
     19 H2          3.3009    0.9593   -1.7754 H         1 <0>         0.0000
     20 H3          4.8555   -3.0463   -1.2816 H         1 <0>         0.0000
     21 H4          0.9566   -2.4641   -2.9641 H         1 <0>         0.0000
     22 H5         -1.5711    0.8791    1.0489 H         1 <0>         0.0000
     23 H6         -1.0162    2.3371    0.2013 H         1 <0>         0.0000
     24 H7         -0.6298   -1.2448   -1.6714 H         1 <0>         0.0000
     25 H8         -1.9694   -0.8324   -0.6236 H         1 <0>         0.0000
     26 H9          1.3413    1.8478    0.9847 H         1 <0>         0.0000
     27 H10         0.1990    2.2545    2.2756 H         1 <0>         0.0000
     28 H11        -0.9935   -1.8220    1.2653 H         1 <0>         0.0000
     29 H12        -0.2734   -2.8113   -0.0081 H         1 <0>         0.0000
     30 H13         1.2296    1.0584   -3.5061 H         1 <0>         0.0000
     31 H14         0.0530   -0.2311   -3.2713 H         1 <0>         0.0000
@<TRIPOS>BOND
     1    1    2 ar
     2    1    3 ar
     3    1   18 1
     4    2    5 ar
     5    2   19 1
     6    3    6 ar
     7    3   20 1
     8    4    5 ar
     9    4    6 ar
    10    4   21 1
    11    5   12 1
    12    6   15 1
    13    7   12 1
    14    7   13 am
    15    7   14 2
    16    8   10 1
    17    8   13 1
    18    8   22 1
    19    8   23 1
    20    9   11 1
    21    9   13 1
    22    9   24 1
    23    9   25 1
    24   10   16 1
    25   10   26 1
    26   10   27 1
    27   11   17 1
    28   11   28 1
    29   11   29 1
    30   12   30 1
    31   12   31 1
    32   16   17 1
