@<TRIPOS>MOLECULE
*****
   34    35     0     0     0
SMALL
NO_CHARGES

@<TRIPOS>ATOM
      1 C1          0.1873    2.7845    1.7179 C.2       1 <0>         0.0000
      2 C2          1.5214    2.8655    1.1145 C.2       1 <0>         0.0000
      3 C3         -0.3657    1.5965    2.0226 C.2       1 <0>         0.0000
      4 C4          2.1360    1.7626    0.6570 C.2       1 <0>         0.0000
      5 C5         -1.0002   -1.5860   -1.0938 C.2       1 <0>         0.0000
      6 C6          3.2152   -0.9183    1.7447 C.2       1 <0>         0.0000
      7 C7         -0.5576   -0.8355    1.2636 C.3       1 <0>         0.0000
      8 C8          0.5611    0.2513   -0.6083 C.3       1 <0>         0.0000
      9 C9          0.3581    0.2915    1.7844 C.3       1 <0>         0.0000
     10 C10         1.4252    0.4303    0.6614 C.3       1 <0>         0.0000
     11 C11        -2.4914   -3.3962   -1.3500 C.3       1 <0>         0.0000
     12 C12         4.8280   -2.4215    2.5887 C.3       1 <0>         0.0000
     13 N1         -0.4216   -0.7473   -0.1964 N.am      1 <0>         0.0000
     14 N2          2.3709   -0.6896    0.6968 N.am      1 <0>         0.0000
     15 O1         -0.8125   -1.5620   -2.3048 O.2       1 <0>         0.0000
     16 O2          3.3717   -0.1866    2.7106 O.2       1 <0>         0.0000
     17 O3         -1.8273   -2.4740   -0.4666 O.3       1 <0>         0.0000
     18 O4          3.8819   -2.0949    1.5540 O.3       1 <0>         0.0000
     19 H1         -0.3384    3.7073    1.9514 H         1 <0>         0.0000
     20 H2          2.0126    3.8333    1.0529 H         1 <0>         0.0000
     21 H3         -1.3301    1.5500    2.5250 H         1 <0>         0.0000
     22 H4          3.1294    1.7957    0.2188 H         1 <0>         0.0000
     23 H5         -0.2249   -1.8170    1.6170 H         1 <0>         0.0000
     24 H6         -1.5976   -0.7036    1.5738 H         1 <0>         0.0000
     25 H7          0.0820    1.2005   -0.8655 H         1 <0>         0.0000
     26 H8          1.1303   -0.0926   -1.4744 H         1 <0>         0.0000
     27 H9          0.8320   -0.0133    2.7241 H         1 <0>         0.0000
     28 H10        -3.1035   -4.0253   -0.7028 H         1 <0>         0.0000
     29 H11        -1.7630   -4.0014   -1.8949 H         1 <0>         0.0000
     30 H12        -3.1178   -2.8594   -2.0664 H         1 <0>         0.0000
     31 H13         5.2649   -3.3746    2.2898 H         1 <0>         0.0000
     32 H14         4.3256   -2.5165    3.5544 H         1 <0>         0.0000
     33 H15         5.6005   -1.6521    2.6602 H         1 <0>         0.0000
     34 H16         2.2703   -1.4364    0.0211 H         1 <0>         0.0000
@<TRIPOS>BOND
     1    1    2 1
     2    1    3 2
     3    1   19 1
     4    2    4 2
     5    2   20 1
     6    3    9 1
     7    3   21 1
     8    4   10 1
     9    4   22 1
    10    5   13 am
    11    5   15 2
    12    5   17 1
    13    6   14 am
    14    6   16 2
    15    6   18 1
    16    7    9 1
    17    7   13 1
    18    7   23 1
    19    7   24 1
    20    8   10 1
    21    8   13 1
    22    8   25 1
    23    8   26 1
    24    9   10 1
    25    9   27 1
    26   10   14 1
    27   11   17 1
    28   11   28 1
    29   11   29 1
    30   11   30 1
    31   12   18 1
    32   12   31 1
    33   12   32 1
    34   12   33 1
    35   14   34 1
