@<TRIPOS>MOLECULE
*****
   29    30     0     0     0
SMALL
NO_CHARGES

@<TRIPOS>ATOM
      1 C1          1.5358   -6.8247    2.7795 C.ar      1 <0>         0.0000
      2 C2          2.6376   -6.2330    2.1537 C.ar      1 <0>         0.0000
      3 C3          0.2915   -6.1877    2.7459 C.ar      1 <0>         0.0000
      4 C4          2.4986   -5.0077    1.4929 C.ar      1 <0>         0.0000
      5 C5          0.1239   -4.9589    2.0888 C.ar      1 <0>         0.0000
      6 C6          1.2495   -4.4025    1.4715 C.ar      1 <0>         0.0000
      7 C7         -0.6577   -2.4762    3.6359 C.cat     1 <0>         0.0000
      8 C8          0.5323   -2.3831    5.6058 C.3       1 <0>         0.0000
      9 C9         -0.1253   -1.0266    5.2952 C.3       1 <0>         0.0000
     10 C10        -1.8561   -4.3099    0.6279 C.3       1 <0>         0.0000
     11 C11        -1.2372   -4.2927    2.0293 C.3       1 <0>         0.0000
     12 N1         -0.1205   -3.2373    4.5952 N.pl3     1 <0>         0.0000
     13 N2         -1.1815   -2.8799    2.4967 N.pl3     1 <0>         0.0000
     14 O1         -0.6501   -1.1857    3.9275 O.3       1 <0>         0.0000
     15 F1          1.1152   -3.2068    0.8370 F         1 <0>         0.0000
     16 H1          1.6417   -7.7791    3.2859 H         1 <0>         0.0000
     17 H2          3.6063   -6.7231    2.1739 H         1 <0>         0.0000
     18 H3         -0.5674   -6.6563    3.2225 H         1 <0>         0.0000
     19 H4          3.3344   -4.5276    0.9934 H         1 <0>         0.0000
     20 H5          1.6152   -2.3718    5.4538 H         1 <0>         0.0000
     21 H6          0.3069   -2.7322    6.6141 H         1 <0>         0.0000
     22 H7         -0.9795   -0.8078    5.9373 H         1 <0>         0.0000
     23 H8          0.5655   -0.1862    5.2769 H         1 <0>         0.0000
     24 H9         -1.2278   -3.7724   -0.0864 H         1 <0>         0.0000
     25 H10        -1.9475   -5.3443    0.2916 H         1 <0>         0.0000
     26 H11        -2.8565   -3.8660    0.6392 H         1 <0>         0.0000
     27 H12        -1.9068   -4.8247    2.7136 H         1 <0>         0.0000
     28 H13         0.1791   -4.1893    4.4009 H         1 <0>         0.0000
     29 H14        -1.5135   -2.1469    1.8767 H         1 <0>         0.0000
@<TRIPOS>BOND
     1    1    2 ar
     2    1    3 ar
     3    1   16 1
     4    2    4 ar
     5    2   17 1
     6    3    5 ar
     7    3   18 1
     8    4    6 ar
     9    4   19 1
    10    5    6 ar
    11    5   11 1
    12    6   15 1
    13    7   12 2
    14    7   13 1
    15    7   14 1
    16    8    9 1
    17    8   12 1
    18    8   20 1
    19    8   21 1
    20    9   14 1
    21    9   22 1
    22    9   23 1
    23   10   11 1
    24   10   24 1
    25   10   25 1
    26   10   26 1
    27   11   13 1
    28   11   27 1
    29   12   28 1
    30   13   29 1
