@<TRIPOS>MOLECULE
*****
   29    30     0     0     0
SMALL
NO_CHARGES

@<TRIPOS>ATOM
      1 C1          2.4419   -5.3644    1.0412 C.ar      1 <0>         0.0000
      2 C2          2.7439   -6.4620    1.8572 C.ar      1 <0>         0.0000
      3 C3          1.1893   -4.7572    1.1286 C.ar      1 <0>         0.0000
      4 C4          1.7973   -6.9468    2.7618 C.ar      1 <0>         0.0000
      5 C5          0.2195   -5.2246    2.0292 C.ar      1 <0>         0.0000
      6 C6          0.5592   -6.3168    2.8299 C.ar      1 <0>         0.0000
      7 C7         -0.6211   -2.8361    3.8169 C.cat     1 <0>         0.0000
      8 C8         -0.1134   -1.6611    5.7418 C.3       1 <0>         0.0000
      9 C9          0.1254   -3.1701    5.9315 C.3       1 <0>         0.0000
     10 C10        -1.9386   -4.5852    0.8299 C.3       1 <0>         0.0000
     11 C11        -1.1506   -4.5864    2.1399 C.3       1 <0>         0.0000
     12 N1         -0.3360   -1.6130    4.2843 N.pl3     1 <0>         0.0000
     13 N2         -1.0330   -3.1645    2.6085 N.pl3     1 <0>         0.0000
     14 O1         -0.4462   -3.7810    4.7196 O.3       1 <0>         0.0000
     15 F1         -0.3570   -6.7869    3.7163 F         1 <0>         0.0000
     16 H1          3.1774   -4.9922    0.3346 H         1 <0>         0.0000
     17 H2          3.7145   -6.9440    1.7870 H         1 <0>         0.0000
     18 H3          0.9615   -3.9120    0.4830 H         1 <0>         0.0000
     19 H4          2.0000   -7.7986    3.4035 H         1 <0>         0.0000
     20 H5         -0.9949   -1.3012    6.2797 H         1 <0>         0.0000
     21 H6          0.7566   -1.0656    6.0211 H         1 <0>         0.0000
     22 H7          1.1822   -3.4389    5.9486 H         1 <0>         0.0000
     23 H8         -0.3952   -3.6039    6.7825 H         1 <0>         0.0000
     24 H9         -1.4105   -4.0403    0.0406 H         1 <0>         0.0000
     25 H10        -2.0643   -5.6149    0.4901 H         1 <0>         0.0000
     26 H11        -2.9305   -4.1443    0.9680 H         1 <0>         0.0000
     27 H12        -1.7260   -5.1095    2.9036 H         1 <0>         0.0000
     28 H13        -0.5452   -0.7594    3.7802 H         1 <0>         0.0000
     29 H14        -1.1563   -2.4248    1.9255 H         1 <0>         0.0000
@<TRIPOS>BOND
     1    1    2 ar
     2    1    3 ar
     3    1   16 1
     4    2    4 ar
     5    2   17 1
     6    3    5 ar
     7    3   18 1
     8    4    6 ar
     9    4   19 1
    10    5    6 ar
    11    5   11 1
    12    6   15 1
    13    7   12 2
    14    7   13 1
    15    7   14 1
    16    8    9 1
    17    8   12 1
    18    8   20 1
    19    8   21 1
    20    9   14 1
    21    9   22 1
    22    9   23 1
    23   10   11 1
    24   10   24 1
    25   10   25 1
    26   10   26 1
    27   11   13 1
    28   11   27 1
    29   12   28 1
    30   13   29 1
