@<TRIPOS>MOLECULE
*****
   42    45     0     0     0
SMALL
NO_CHARGES

@<TRIPOS>ATOM
      1 C1          3.4603   -0.0513    1.5631 C.1       1 <0>         0.0000
      2 C2         -2.1036    0.1614   -3.0974 C.ar      1 <0>         0.0000
      3 C3         -1.1937   -0.6393   -2.3661 C.ar      1 <0>         0.0000
      4 C4         -2.3758    1.4919   -2.7582 C.ar      1 <0>         0.0000
      5 C5         -0.8055    1.2076   -0.9147 C.ar      1 <0>         0.0000
      6 C6         -0.5312   -0.1187   -1.2562 C.ar      1 <0>         0.0000
      7 C7         -0.2485    1.9787    0.1505 C.2       1 <0>         0.0000
      8 C8         -1.7035    2.0147   -1.6458 C.ar      1 <0>         0.0000
      9 C9         -0.8004    3.2377    0.0631 C.2       1 <0>         0.0000
     10 C10        -0.0369   -3.2736    2.6193 C.2       1 <0>         0.0000
     11 C11         0.7343    1.3198    1.0749 C.3       1 <0>         0.0000
     12 C12        -0.2937   -1.7216    0.6772 C.3       1 <0>         0.0000
     13 C13         1.6694   -1.4825    2.2539 C.3       1 <0>         0.0000
     14 C14         0.4436   -0.8561   -0.3621 C.3       1 <0>         0.0000
     15 C15         0.7131   -2.4673    1.5787 C.3       1 <0>         0.0000
     16 C16         1.4146    0.1385    0.3293 C.3       1 <0>         0.0000
     17 C17        -0.5928    4.4561    0.9030 C.3       1 <0>         0.0000
     18 C18        -1.2578   -5.2628    3.0022 C.3       1 <0>         0.0000
     19 N1          4.4868    0.4449    1.8291 N.1       1 <0>         0.0000
     20 N2         -1.6907    3.2540   -1.0222 N.pl3     1 <0>         0.0000
     21 N3          2.3064   -0.6379    1.2242 N.3       1 <0>         0.0000
     22 O1         -0.2618   -2.9134    3.7600 O.2       1 <0>         0.0000
     23 O2         -0.4699   -4.4481    2.1064 O.3       1 <0>         0.0000
     24 H1         -2.6054   -0.2706   -3.9593 H         1 <0>         0.0000
     25 H2         -1.0130   -1.6640   -2.6845 H         1 <0>         0.0000
     26 H3         -3.0750    2.0822   -3.3450 H         1 <0>         0.0000
     27 H4          1.5154    2.0068    1.4169 H         1 <0>         0.0000
     28 H5          0.2277    0.9470    1.9734 H         1 <0>         0.0000
     29 H6         -0.9471   -1.0914    1.2912 H         1 <0>         0.0000
     30 H7         -0.9350   -2.4414    0.1614 H         1 <0>         0.0000
     31 H8          1.1278   -0.8803    2.9913 H         1 <0>         0.0000
     32 H9          2.4613   -2.0154    2.7838 H         1 <0>         0.0000
     33 H10         1.0636   -1.5255   -0.9708 H         1 <0>         0.0000
     34 H11         1.2865   -3.1585    0.9523 H         1 <0>         0.0000
     35 H12         2.0557    0.5624   -0.4484 H         1 <0>         0.0000
     36 H13        -0.2726    5.3150    0.3007 H         1 <0>         0.0000
     37 H14        -1.5081    4.7451    1.4343 H         1 <0>         0.0000
     38 H15         0.1802    4.2676    1.6515 H         1 <0>         0.0000
     39 H16        -1.5250   -6.1495    2.4281 H         1 <0>         0.0000
     40 H17        -2.1528   -4.7225    3.3187 H         1 <0>         0.0000
     41 H18        -0.6710   -5.5345    3.8825 H         1 <0>         0.0000
     42 H19        -2.2030    4.0701   -1.3256 H         1 <0>         0.0000
@<TRIPOS>BOND
     1    1   19 3
     2    1   21 1
     3    2    3 ar
     4    2    4 ar
     5    2   24 1
     6    3    6 ar
     7    3   25 1
     8    4    8 ar
     9    4   26 1
    10    5    6 ar
    11    5    7 1
    12    5    8 ar
    13    6   14 1
    14    7    9 2
    15    7   11 1
    16    8   20 1
    17    9   17 1
    18    9   20 1
    19   10   15 1
    20   10   22 2
    21   10   23 1
    22   11   16 1
    23   11   27 1
    24   11   28 1
    25   12   14 1
    26   12   15 1
    27   12   29 1
    28   12   30 1
    29   13   15 1
    30   13   21 1
    31   13   31 1
    32   13   32 1
    33   14   16 1
    34   14   33 1
    35   15   34 1
    36   16   21 1
    37   16   35 1
    38   17   36 1
    39   17   37 1
    40   17   38 1
    41   18   23 1
    42   18   39 1
    43   18   40 1
    44   18   41 1
    45   20   42 1
