@<TRIPOS>MOLECULE
*****
   19    19     0     0     0
SMALL
NO_CHARGES

@<TRIPOS>ATOM
      1 C1          0.9405    1.6555   -0.9287 C.2       1 <0>         0.0000
      2 C2         -0.4276    1.6676   -0.9489 C.2       1 <0>         0.0000
      3 C3          1.6566    0.5694   -0.3557 C.2       1 <0>         0.0000
      4 C4         -1.2025    0.5794   -0.3949 C.2       1 <0>         0.0000
      5 C5          0.9418   -0.4733    0.1731 C.2       1 <0>         0.0000
      6 C6         -1.2000   -1.6259    0.6698 C.3       1 <0>         0.0000
      7 C7          1.8464   -1.4343    2.1294 C.3       1 <0>         0.0000
      8 N1         -0.4311   -0.4900    0.1493 N.am      1 <0>         0.0000
      9 O1         -2.4357    0.5102   -0.3636 O.2       1 <0>         0.0000
     10 O2          1.5638   -1.5595    0.7222 O.3       1 <0>         0.0000
     11 H1          1.4953    2.4884   -1.3543 H         1 <0>         0.0000
     12 H2         -0.9950    2.4863   -1.3775 H         1 <0>         0.0000
     13 H3          2.7389    0.5329   -0.3280 H         1 <0>         0.0000
     14 H4         -1.6909   -1.3502    1.6075 H         1 <0>         0.0000
     15 H5         -0.5345   -2.4721    0.8230 H         1 <0>         0.0000
     16 H6         -1.9785   -1.8765   -0.0514 H         1 <0>         0.0000
     17 H7          2.3575   -2.3536    2.4185 H         1 <0>         0.0000
     18 H8          0.9217   -1.3277    2.7082 H         1 <0>         0.0000
     19 H9          2.4953   -0.5715    2.3130 H         1 <0>         0.0000
@<TRIPOS>BOND
     1    1    2 2
     2    1    3 1
     3    1   11 1
     4    2    4 1
     5    2   12 1
     6    3    5 2
     7    3   13 1
     8    4    8 am
     9    4    9 2
    10    5    8 1
    11    5   10 1
    12    6    8 1
    13    6   14 1
    14    6   15 1
    15    6   16 1
    16    7   10 1
    17    7   17 1
    18    7   18 1
    19    7   19 1
