@<TRIPOS>MOLECULE
*****
   17    18     0     0     0
SMALL
NO_CHARGES

@<TRIPOS>ATOM
      1 C1         -0.0877   -2.4421    1.3893 C.ar      1 <0>         0.0000
      2 C2         -1.1865   -1.7479    1.0129 C.ar      1 <0>         0.0000
      3 C3          1.2494   -1.9337    1.1390 C.ar      1 <0>         0.0000
      4 C4         -1.0460   -0.4637    0.3377 C.ar      1 <0>         0.0000
      5 C5          0.3310    0.1188    0.1517 C.ar      1 <0>         0.0000
      6 C6          1.4553   -0.7274    0.5494 C.ar      1 <0>         0.0000
      7 C7         -0.5888    2.0922   -0.6387 C.2       1 <0>         0.0000
      8 C8         -1.9186    1.3794   -0.8138 C.3       1 <0>         0.0000
      9 N1          0.5409    1.3071   -0.3299 N.2       1 <0>         0.0000
     10 N2         -2.1014    0.1191   -0.1260 N.2       1 <0>         0.0000
     11 O1         -0.4868    3.2983   -0.7787 O.2       1 <0>         0.0000
     12 Br1         3.2213   -0.0843    0.2534 Br        1 <0>         0.0000
     13 H1         -0.1837   -3.4067    1.8794 H         1 <0>         0.0000
     14 H2         -2.1956   -2.1154    1.1699 H         1 <0>         0.0000
     15 H3          2.1010   -2.5369    1.4381 H         1 <0>         0.0000
     16 H4         -2.7294    2.0604   -0.5363 H         1 <0>         0.0000
     17 H5         -2.0633    1.1841   -1.8884 H         1 <0>         0.0000
@<TRIPOS>BOND
     1    1    2 ar
     2    1    3 ar
     3    1   13 1
     4    2    4 ar
     5    2   14 1
     6    3    6 ar
     7    3   15 1
     8    4    5 ar
     9    4   10 2
    10    5    6 ar
    11    5    9 2
    12    6   12 1
    13    7    8 1
    14    7    9 1
    15    7   11 2
    16    8   10 1
    17    8   16 1
    18    8   17 1
