@<TRIPOS>MOLECULE
*****
   23    23     0     0     0
SMALL
NO_CHARGES

@<TRIPOS>ATOM
      1 C1          5.0389    1.2671    6.2596 C.ar      1 <0>         0.0000
      2 C2          6.0000    0.3732    5.7974 C.ar      1 <0>         0.0000
      3 C3          3.6885    1.0013    6.0540 C.ar      1 <0>         0.0000
      4 C4          5.5832   -0.7732    5.1358 C.ar      1 <0>         0.0000
      5 C5          3.3302   -0.1609    5.3858 C.ar      1 <0>         0.0000
      6 C6          2.3416   -2.1604    2.2898 C.2       1 <0>         0.0000
      7 C7          1.9315   -0.4774    5.1493 C.2       1 <0>         0.0000
      8 C8          3.5363   -1.9017    2.8326 C.2       1 <0>         0.0000
      9 C9          3.8987   -2.2312    4.2464 C.3       1 <0>         0.0000
     10 N1          1.0141    0.4353    4.9973 N.2       1 <0>         0.0000
     11 N2          4.2762   -1.0046    4.9513 N.ar      1 <0>         0.0000
     12 O1         -0.2221   -0.1816    4.7883 O.3       1 <0>         0.0000
     13 H1          5.3423    2.1707    6.7800 H         1 <0>         0.0000
     14 H2          7.0557    0.5686    5.9517 H         1 <0>         0.0000
     15 H3          2.9375    1.6978    6.4138 H         1 <0>         0.0000
     16 H4          6.2763   -1.5111    4.7505 H         1 <0>         0.0000
     17 H5          2.1193   -1.9050    1.2596 H         1 <0>         0.0000
     18 H6          1.5632   -2.6366    2.8762 H         1 <0>         0.0000
     19 H7          1.6443   -1.5530    5.0989 H         1 <0>         0.0000
     20 H8          4.2988   -1.4344    2.2150 H         1 <0>         0.0000
     21 H9          3.0726   -2.7087    4.7856 H         1 <0>         0.0000
     22 H10         4.7424   -2.9298    4.2617 H         1 <0>         0.0000
     23 H11        -0.8099    0.5867    4.6913 H         1 <0>         0.0000
@<TRIPOS>BOND
     1    1    2 ar
     2    1    3 ar
     3    1   13 1
     4    2    4 ar
     5    2   14 1
     6    3    5 ar
     7    3   15 1
     8    4   11 ar
     9    4   16 1
    10    5    7 1
    11    5   11 ar
    12    6    8 2
    13    6   17 1
    14    6   18 1
    15    7   10 2
    16    7   19 1
    17    8    9 1
    18    8   20 1
    19    9   11 1
    20    9   21 1
    21    9   22 1
    22   10   12 1
    23   12   23 1
