@<TRIPOS>MOLECULE
*****
   17    17     0     0     0
SMALL
NO_CHARGES

@<TRIPOS>ATOM
      1 C1          0.2173   -2.3797   -1.3995 C.3       1 <0>         0.0000
      2 C2          1.5412   -2.2568   -2.1283 C.3       1 <0>         0.0000
      3 C3          0.3696   -1.3473   -2.4877 C.3       1 <0>         0.0000
      4 C4         -2.2246    0.4378   -2.8630 C.3       1 <0>         0.0000
      5 N1         -1.5914    0.0520   -0.1587 N.1       1 <0>         0.0000
      6 N2          0.4273    0.0207   -2.0710 N.pl3     1 <0>         0.0000
      7 O1         -0.7605    2.1908   -1.5700 O.2       1 <0>         0.0000
      8 S1         -1.1216    0.7356   -1.3755 S.o       1 <0>         0.0000
      9 H1         -0.4089   -3.2440   -1.6068 H         1 <0>         0.0000
     10 H2          0.1273   -1.9742   -0.3984 H         1 <0>         0.0000
     11 H3          2.3633   -1.7829   -1.5997 H         1 <0>         0.0000
     12 H4          1.8237   -3.0377   -2.8329 H         1 <0>         0.0000
     13 H5         -0.1285   -1.5877   -3.4344 H         1 <0>         0.0000
     14 H6         -1.7982    0.8836   -3.7675 H         1 <0>         0.0000
     15 H7         -2.3715   -0.6388   -2.9834 H         1 <0>         0.0000
     16 H8         -3.1804    0.9133   -2.6261 H         1 <0>         0.0000
     17 H9          0.7391    0.6405   -2.8174 H         1 <0>         0.0000
@<TRIPOS>BOND
     1    1    2 1
     2    1    3 1
     3    1    9 1
     4    1   10 1
     5    2    3 1
     6    2   11 1
     7    2   12 1
     8    3    6 1
     9    3   13 1
    10    4    8 1
    11    4   14 1
    12    4   15 1
    13    4   16 1
    14    5    8 2
    15    6    8 1
    16    6   17 1
    17    7    8 2
