@<TRIPOS>MOLECULE
*****
   40    42     0     0     0
SMALL
NO_CHARGES

@<TRIPOS>ATOM
      1 C1          0.9568   -3.3812    0.9162 C.ar      1 <0>         0.0000
      2 C2          3.2329   -5.0201    3.2049 C.2       1 <0>         0.0000
      3 C3          1.0094   -2.0527    1.3248 C.ar      1 <0>         0.0000
      4 C4          2.7874   -6.0326    2.4180 C.2       1 <0>         0.0000
      5 C5          2.5782   -3.8110    2.7310 C.ar      1 <0>         0.0000
      6 C6          1.7692   -4.2355    1.6613 C.ar      1 <0>         0.0000
      7 C7          2.5448   -2.4145    3.0466 C.ar      1 <0>         0.0000
      8 C8         -0.6563   -0.5258    9.2684 C.3       1 <0>         0.0000
      9 C9         -1.5681   -0.4268    8.0126 C.3       1 <0>         0.0000
     10 C10         0.7292   -0.8727    8.6989 C.3       1 <0>         0.0000
     11 C11        -0.6188   -0.6801    6.8256 C.3       1 <0>         0.0000
     12 C12         4.1329   -2.6432    4.9207 C.3       1 <0>         0.0000
     13 C13         1.8667   -0.0740    5.1564 C.3       1 <0>         0.0000
     14 C14         1.8220   -0.7603    6.5227 C.3       1 <0>         0.0000
     15 C15         3.1223   -0.4119    4.3426 C.3       1 <0>         0.0000
     16 N1          1.7574   -1.5833    2.3386 N.ar      1 <0>         0.0000
     17 N2          0.7041   -0.3135    7.3447 N.3       1 <0>         0.0000
     18 N3          3.2887   -1.8417    4.0520 N.pl3     1 <0>         0.0000
     19 O1          1.8935   -5.5826    1.4668 O.3       1 <0>         0.0000
     20 H1          0.3362   -3.7204    0.0950 H         1 <0>         0.0000
     21 H2          3.9353   -5.1405    4.0144 H         1 <0>         0.0000
     22 H3          0.4082   -1.3060    0.8083 H         1 <0>         0.0000
     23 H4          2.9939   -7.0930    2.3963 H         1 <0>         0.0000
     24 H5         -0.6227    0.4323    9.7939 H         1 <0>         0.0000
     25 H6         -0.9993   -1.2812    9.9809 H         1 <0>         0.0000
     26 H7         -2.3851   -1.1534    8.0290 H         1 <0>         0.0000
     27 H8         -2.0158    0.5678    7.9404 H         1 <0>         0.0000
     28 H9          1.5559   -0.4456    9.2766 H         1 <0>         0.0000
     29 H10         0.8685   -1.9724    8.6756 H         1 <0>         0.0000
     30 H11        -0.6457   -1.7477    6.5297 H         1 <0>         0.0000
     31 H12        -0.8747   -0.0866    5.9442 H         1 <0>         0.0000
     32 H13         4.6163   -1.9862    5.6440 H         1 <0>         0.0000
     33 H14         4.9217   -3.1540    4.3561 H         1 <0>         0.0000
     34 H15         3.5609   -3.3907    5.4849 H         1 <0>         0.0000
     35 H16         1.8325    1.0123    5.3060 H         1 <0>         0.0000
     36 H17         0.9933   -0.3466    4.5590 H         1 <0>         0.0000
     37 H18         1.7915   -1.8599    6.3854 H         1 <0>         0.0000
     38 H19         2.7462   -0.5351    7.0716 H         1 <0>         0.0000
     39 H20         4.0196   -0.0853    4.8787 H         1 <0>         0.0000
     40 H21         3.0858    0.1290    3.3953 H         1 <0>         0.0000
@<TRIPOS>BOND
     1    1    3 ar
     2    1    6 ar
     3    1   20 1
     4    2    4 2
     5    2    5 1
     6    2   21 1
     7    3   16 ar
     8    3   22 1
     9    4   19 1
    10    4   23 1
    11    5    6 ar
    12    5    7 ar
    13    6   19 1
    14    7   16 ar
    15    7   18 1
    16    8    9 1
    17    8   10 1
    18    8   24 1
    19    8   25 1
    20    9   11 1
    21    9   26 1
    22    9   27 1
    23   10   17 1
    24   10   28 1
    25   10   29 1
    26   11   17 1
    27   11   30 1
    28   11   31 1
    29   12   18 1
    30   12   32 1
    31   12   33 1
    32   12   34 1
    33   13   14 1
    34   13   15 1
    35   13   35 1
    36   13   36 1
    37   14   17 1
    38   14   37 1
    39   14   38 1
    40   15   18 1
    41   15   39 1
    42   15   40 1
