@<TRIPOS>MOLECULE
*****
   40    42     0     0     0
SMALL
NO_CHARGES

@<TRIPOS>ATOM
      1 C1          5.1456   -3.4940    6.9168 C.ar      1 <0>         0.0000
      2 C2          3.4914   -4.8676    4.0047 C.2       1 <0>         0.0000
      3 C3          4.8894   -2.1314    6.8050 C.ar      1 <0>         0.0000
      4 C4          4.0253   -5.9578    4.6125 C.2       1 <0>         0.0000
      5 C5          3.8505   -3.7214    4.8246 C.ar      1 <0>         0.0000
      6 C6          4.5974   -4.2597    5.8883 C.ar      1 <0>         0.0000
      7 C7          3.6588   -2.3024    4.8284 C.ar      1 <0>         0.0000
      8 C8         -3.0061    0.2254    6.1332 C.3       1 <0>         0.0000
      9 C9         -2.3640    1.6298    6.3166 C.3       1 <0>         0.0000
     10 C10        -2.0169   -0.5238    5.2249 C.3       1 <0>         0.0000
     11 C11        -1.0410    1.5544    5.5302 C.3       1 <0>         0.0000
     12 C12         2.3129   -2.3237    2.7593 C.3       1 <0>         0.0000
     13 C13         1.6926    0.2745    4.9309 C.3       1 <0>         0.0000
     14 C14         0.3103   -0.2573    4.5495 C.3       1 <0>         0.0000
     15 C15         2.8007   -0.1699    3.9668 C.3       1 <0>         0.0000
     16 N1          4.1810   -1.5551    5.8184 N.ar      1 <0>         0.0000
     17 N2         -0.7299    0.1221    5.4954 N.3       1 <0>         0.0000
     18 N3          2.9597   -1.6247    3.8561 N.pl3     1 <0>         0.0000
     19 O1          4.7058   -5.6165    5.7643 O.3       1 <0>         0.0000
     20 H1          5.7184   -3.9202    7.7323 H         1 <0>         0.0000
     21 H2          2.9190   -4.8978    3.0910 H         1 <0>         0.0000
     22 H3          5.2741   -1.4471    7.5597 H         1 <0>         0.0000
     23 H4          4.0182   -7.0113    4.3722 H         1 <0>         0.0000
     24 H5         -3.0972   -0.2825    7.0969 H         1 <0>         0.0000
     25 H6         -4.0043    0.2725    5.6890 H         1 <0>         0.0000
     26 H7         -3.0024    2.4355    5.9436 H         1 <0>         0.0000
     27 H8         -2.1700    1.8282    7.3739 H         1 <0>         0.0000
     28 H9         -1.9600   -1.5967    5.4365 H         1 <0>         0.0000
     29 H10        -2.3092   -0.4057    4.1618 H         1 <0>         0.0000
     30 H11        -1.1777    1.9555    4.5055 H         1 <0>         0.0000
     31 H12        -0.2354    2.1219    6.0038 H         1 <0>         0.0000
     32 H13         1.7927   -1.5954    2.1370 H         1 <0>         0.0000
     33 H14         1.5674   -3.0472    3.1116 H         1 <0>         0.0000
     34 H15         3.0393   -2.8475    2.1258 H         1 <0>         0.0000
     35 H16         1.9424   -0.0566    5.9423 H         1 <0>         0.0000
     36 H17         1.6875    1.3713    4.9396 H         1 <0>         0.0000
     37 H18         0.0512    0.0764    3.5212 H         1 <0>         0.0000
     38 H19         0.3469   -1.3522    4.5264 H         1 <0>         0.0000
     39 H20         3.7492    0.2558    4.2988 H         1 <0>         0.0000
     40 H21         2.5995    0.2103    2.9597 H         1 <0>         0.0000
@<TRIPOS>BOND
     1    1    3 ar
     2    1    6 ar
     3    1   20 1
     4    2    4 2
     5    2    5 1
     6    2   21 1
     7    3   16 ar
     8    3   22 1
     9    4   19 1
    10    4   23 1
    11    5    6 ar
    12    5    7 ar
    13    6   19 1
    14    7   16 ar
    15    7   18 1
    16    8    9 1
    17    8   10 1
    18    8   24 1
    19    8   25 1
    20    9   11 1
    21    9   26 1
    22    9   27 1
    23   10   17 1
    24   10   28 1
    25   10   29 1
    26   11   17 1
    27   11   30 1
    28   11   31 1
    29   12   18 1
    30   12   32 1
    31   12   33 1
    32   12   34 1
    33   13   14 1
    34   13   15 1
    35   13   35 1
    36   13   36 1
    37   14   17 1
    38   14   37 1
    39   14   38 1
    40   15   18 1
    41   15   39 1
    42   15   40 1
