@<TRIPOS>MOLECULE
*****
   51    54     0     0     0
SMALL
NO_CHARGES

@<TRIPOS>ATOM
      1 C1         -2.1630   -2.3872   -3.2504 C.1       1 <0>         0.0000
      2 C2         -0.9551   -0.9862   -6.4515 C.ar      1 <0>         0.0000
      3 C3         -1.4091   -1.5844   -4.1610 C.ar      1 <0>         0.0000
      4 C4         -1.7304   -1.6911   -5.5318 C.ar      1 <0>         0.0000
      5 C5          0.1241   -0.2192   -5.9926 C.ar      1 <0>         0.0000
      6 C6         -0.3195   -0.7377   -3.7696 C.ar      1 <0>         0.0000
      7 C7         -0.1619   -0.5903    1.1888 C.2       1 <0>         0.0000
      8 C8         -0.5756    2.2755    0.9926 C.3       1 <0>         0.0000
      9 C9         -2.9159   -0.3039    4.5576 C.3       1 <0>         0.0000
     10 C10        -2.2067   -1.3899    5.3414 C.3       1 <0>         0.0000
     11 C11        -0.9001    1.4253   -0.2314 C.3       1 <0>         0.0000
     12 C12         1.3287    0.2468   -0.6534 C.3       1 <0>         0.0000
     13 C13        -0.9977    1.5268    2.2489 C.3       1 <0>         0.0000
     14 C14         1.2411    0.2980   -2.1804 C.3       1 <0>         0.0000
     15 C15        -0.6912   -0.8781   -1.2682 C.3       1 <0>         0.0000
     16 C16        -1.8263   -1.1271    3.9032 C.3       1 <0>         0.0000
     17 C17        -0.1440    0.0846   -0.1935 C.3       1 <0>         0.0000
     18 C18        -2.8698   -2.5667   -5.9849 C.3       1 <0>         0.0000
     19 C19         1.0224    0.5219   -6.9507 C.3       1 <0>         0.0000
     20 C20        -0.4767   -0.5139    3.5917 C.3       1 <0>         0.0000
     21 N1         -2.8161   -3.0835   -2.5774 N.1       1 <0>         0.0000
     22 N2          0.4260   -0.0978   -4.6972 N.ar      1 <0>         0.0000
     23 N3          0.0566   -0.5181   -2.4814 N.pl3     1 <0>         0.0000
     24 N4         -0.4393    0.1718    2.2934 N.am      1 <0>         0.0000
     25 O1          0.1412   -1.7831    1.2907 O.2       1 <0>         0.0000
     26 H1         -1.1718   -1.0467   -7.5134 H         1 <0>         0.0000
     27 H2          0.4962    2.4989    1.0365 H         1 <0>         0.0000
     28 H3         -1.1047    3.2335    0.9532 H         1 <0>         0.0000
     29 H4         -3.9447   -0.4757    4.2544 H         1 <0>         0.0000
     30 H5         -2.6909    0.7275    4.8170 H         1 <0>         0.0000
     31 H6         -1.5093   -1.0792    6.1155 H         1 <0>         0.0000
     32 H7         -2.7499   -2.3018    5.5692 H         1 <0>         0.0000
     33 H8         -1.9797    1.2295   -0.2480 H         1 <0>         0.0000
     34 H9         -0.6674    1.9598   -1.1582 H         1 <0>         0.0000
     35 H10         1.8957   -0.6312   -0.3336 H         1 <0>         0.0000
     36 H11         1.8090    1.1362   -0.2377 H         1 <0>         0.0000
     37 H12        -0.6544    2.0567    3.1442 H         1 <0>         0.0000
     38 H13        -2.0940    1.4793    2.3053 H         1 <0>         0.0000
     39 H14         1.1092    1.3170   -2.5615 H         1 <0>         0.0000
     40 H15         2.1278   -0.1116   -2.6705 H         1 <0>         0.0000
     41 H16        -0.5114   -1.9147   -0.9759 H         1 <0>         0.0000
     42 H17        -1.7633   -0.7377   -1.4160 H         1 <0>         0.0000
     43 H18        -2.1450   -1.8696    3.1765 H         1 <0>         0.0000
     44 H19        -2.6911   -3.6116   -5.7106 H         1 <0>         0.0000
     45 H20        -3.8083   -2.2725   -5.5046 H         1 <0>         0.0000
     46 H21        -2.9982   -2.5091   -7.0681 H         1 <0>         0.0000
     47 H22         1.0643    1.5824   -6.6835 H         1 <0>         0.0000
     48 H23         2.0434    0.1316   -6.8825 H         1 <0>         0.0000
     49 H24         0.6800    0.4290   -7.9842 H         1 <0>         0.0000
     50 H25         0.2878   -1.2921    3.5743 H         1 <0>         0.0000
     51 H26        -0.2072    0.2170    4.3631 H         1 <0>         0.0000
@<TRIPOS>BOND
     1    1    3 1
     2    1   21 3
     3    2    4 ar
     4    2    5 ar
     5    2   26 1
     6    3    4 ar
     7    3    6 ar
     8    4   18 1
     9    5   19 1
    10    5   22 ar
    11    6   22 ar
    12    6   23 1
    13    7   17 1
    14    7   24 am
    15    7   25 2
    16    8   11 1
    17    8   13 1
    18    8   27 1
    19    8   28 1
    20    9   10 1
    21    9   16 1
    22    9   29 1
    23    9   30 1
    24   10   16 1
    25   10   31 1
    26   10   32 1
    27   11   17 1
    28   11   33 1
    29   11   34 1
    30   12   14 1
    31   12   17 1
    32   12   35 1
    33   12   36 1
    34   13   24 1
    35   13   37 1
    36   13   38 1
    37   14   23 1
    38   14   39 1
    39   14   40 1
    40   15   17 1
    41   15   23 1
    42   15   41 1
    43   15   42 1
    44   16   20 1
    45   16   43 1
    46   18   44 1
    47   18   45 1
    48   18   46 1
    49   19   47 1
    50   19   48 1
    51   19   49 1
    52   20   24 1
    53   20   50 1
    54   20   51 1
