@<TRIPOS>MOLECULE
*****
   51    54     0     0     0
SMALL
NO_CHARGES

@<TRIPOS>ATOM
      1 C1         -3.5537    2.0147   -2.3242 C.1       1 <0>         0.0000
      2 C2         -1.0248    4.3544   -3.6622 C.ar      1 <0>         0.0000
      3 C3         -2.2727    2.5433   -2.6731 C.ar      1 <0>         0.0000
      4 C4         -2.2571    3.7831   -3.3493 C.ar      1 <0>         0.0000
      5 C5          0.1512    3.6913   -3.2871 C.ar      1 <0>         0.0000
      6 C6         -1.0235    1.9151   -2.3502 C.ar      1 <0>         0.0000
      7 C7         -0.0501   -0.5827    1.0453 C.2       1 <0>         0.0000
      8 C8          1.0548   -3.1967    0.4012 C.3       1 <0>         0.0000
      9 C9          1.2043    0.6058    5.0982 C.3       1 <0>         0.0000
     10 C10         1.7938    0.8966    3.7341 C.3       1 <0>         0.0000
     11 C11         1.2385   -2.0576   -0.5967 C.3       1 <0>         0.0000
     12 C12        -1.2430   -1.4750   -0.9485 C.3       1 <0>         0.0000
     13 C13         1.1511   -2.6483    1.8186 C.3       1 <0>         0.0000
     14 C14        -1.9811   -0.1856   -1.3148 C.3       1 <0>         0.0000
     15 C15         0.4155    0.2439   -1.2866 C.3       1 <0>         0.0000
     16 C16         1.3461   -0.5070    4.0814 C.3       1 <0>         0.0000
     17 C17         0.1406   -1.0025   -0.4227 C.3       1 <0>         0.0000
     18 C18        -3.5463    4.4764   -3.7071 C.3       1 <0>         0.0000
     19 C19         1.5091    4.2748   -3.5877 C.3       1 <0>         0.0000
     20 C20         0.1006   -1.0716    3.4272 C.3       1 <0>         0.0000
     21 N1         -4.6391    1.6608   -2.0770 N.1       1 <0>         0.0000
     22 N2          0.1486    2.5146   -2.6575 N.ar      1 <0>         0.0000
     23 N3         -0.9008    0.7084   -1.7388 N.pl3     1 <0>         0.0000
     24 N4          0.3001   -1.4735    2.0279 N.am      1 <0>         0.0000
     25 O1         -0.5862    0.4996    1.3083 O.2       1 <0>         0.0000
     26 H1         -0.9759    5.3078   -4.1787 H         1 <0>         0.0000
     27 H2          0.0821   -3.6778    0.2503 H         1 <0>         0.0000
     28 H3          1.8220   -3.9663    0.2663 H         1 <0>         0.0000
     29 H4          1.8671    0.6008    5.9585 H         1 <0>         0.0000
     30 H5          0.2037    0.9766    5.3036 H         1 <0>         0.0000
     31 H6          1.1825    1.4466    3.0260 H         1 <0>         0.0000
     32 H7          2.8609    1.0908    3.6712 H         1 <0>         0.0000
     33 H8          2.2214   -1.5931   -0.4399 H         1 <0>         0.0000
     34 H9          1.2246   -2.4279   -1.6280 H         1 <0>         0.0000
     35 H10        -1.8031   -2.0717   -0.2248 H         1 <0>         0.0000
     36 H11        -1.0865   -2.0863   -1.8446 H         1 <0>         0.0000
     37 H12         0.8516   -3.4106    2.5468 H         1 <0>         0.0000
     38 H13         2.1965   -2.3875    2.0399 H         1 <0>         0.0000
     39 H14        -2.6980   -0.3496   -2.1209 H         1 <0>         0.0000
     40 H15        -2.5114    0.2271   -0.4520 H         1 <0>         0.0000
     41 H16         0.9284    1.0297   -0.7301 H         1 <0>         0.0000
     42 H17         1.0415   -0.0166   -2.1484 H         1 <0>         0.0000
     43 H18         2.1362   -1.2283    4.2806 H         1 <0>         0.0000
     44 H19        -4.1721    3.8408   -4.3418 H         1 <0>         0.0000
     45 H20        -4.1330    4.6983   -2.8097 H         1 <0>         0.0000
     46 H21        -3.3509    5.4124   -4.2351 H         1 <0>         0.0000
     47 H22         2.1034    4.3319   -2.6706 H         1 <0>         0.0000
     48 H23         2.0504    3.6250   -4.2837 H         1 <0>         0.0000
     49 H24         1.4352    5.2728   -4.0268 H         1 <0>         0.0000
     50 H25        -0.6948   -0.3266    3.4354 H         1 <0>         0.0000
     51 H26        -0.2501   -1.9518    3.9803 H         1 <0>         0.0000
@<TRIPOS>BOND
     1    1    3 1
     2    1   21 3
     3    2    4 ar
     4    2    5 ar
     5    2   26 1
     6    3    4 ar
     7    3    6 ar
     8    4   18 1
     9    5   19 1
    10    5   22 ar
    11    6   22 ar
    12    6   23 1
    13    7   17 1
    14    7   24 am
    15    7   25 2
    16    8   11 1
    17    8   13 1
    18    8   27 1
    19    8   28 1
    20    9   10 1
    21    9   16 1
    22    9   29 1
    23    9   30 1
    24   10   16 1
    25   10   31 1
    26   10   32 1
    27   11   17 1
    28   11   33 1
    29   11   34 1
    30   12   14 1
    31   12   17 1
    32   12   35 1
    33   12   36 1
    34   13   24 1
    35   13   37 1
    36   13   38 1
    37   14   23 1
    38   14   39 1
    39   14   40 1
    40   15   17 1
    41   15   23 1
    42   15   41 1
    43   15   42 1
    44   16   20 1
    45   16   43 1
    46   18   44 1
    47   18   45 1
    48   18   46 1
    49   19   47 1
    50   19   48 1
    51   19   49 1
    52   20   24 1
    53   20   50 1
    54   20   51 1
