@<TRIPOS>MOLECULE
*****
   51    54     0     0     0
SMALL
NO_CHARGES

@<TRIPOS>ATOM
      1 C1         -2.7306    2.7419   -4.0399 C.1       1 <0>         0.0000
      2 C2         -0.1729    5.3861   -4.3923 C.ar      1 <0>         0.0000
      3 C3         -1.4924    3.4356   -3.8730 C.ar      1 <0>         0.0000
      4 C4         -1.3498    4.6592   -4.5636 C.ar      1 <0>         0.0000
      5 C5          0.8201    4.8884   -3.5381 C.ar      1 <0>         0.0000
      6 C6         -0.4180    2.9838   -3.0358 C.ar      1 <0>         0.0000
      7 C7         -0.6222    0.7177    0.6373 C.2       1 <0>         0.0000
      8 C8          0.9003   -1.7578    0.6720 C.3       1 <0>         0.0000
      9 C9         -3.8181   -0.0767    2.1648 C.3       1 <0>         0.0000
     10 C10        -3.8616    0.2018    3.6532 C.3       1 <0>         0.0000
     11 C11         1.3611   -0.6277   -0.2434 C.3       1 <0>         0.0000
     12 C12        -0.8150   -0.3730   -1.5894 C.3       1 <0>         0.0000
     13 C13         0.3681   -1.1761    1.9754 C.3       1 <0>         0.0000
     14 C14        -1.4731    0.7996   -2.3190 C.3       1 <0>         0.0000
     15 C15         0.6479    1.5350   -1.3747 C.3       1 <0>         0.0000
     16 C16        -2.6427   -0.4536    3.0393 C.3       1 <0>         0.0000
     17 C17         0.1839    0.2863   -0.5987 C.3       1 <0>         0.0000
     18 C18        -2.4545    5.1701   -5.4521 C.3       1 <0>         0.0000
     19 C19         2.1042    5.6443   -3.3054 C.3       1 <0>         0.0000
     20 C20        -1.3563    0.3382    2.9298 C.3       1 <0>         0.0000
     21 N1         -3.7703    2.2458   -4.2333 N.1       1 <0>         0.0000
     22 N2          0.7004    3.7288   -2.8882 N.ar      1 <0>         0.0000
     23 N3         -0.4154    1.8129   -2.3472 N.pl3     1 <0>         0.0000
     24 N4         -0.5459   -0.0500    1.7675 N.am      1 <0>         0.0000
     25 O1         -1.3629    1.7064    0.5731 O.2       1 <0>         0.0000
     26 H1         -0.0311    6.3318   -4.9057 H         1 <0>         0.0000
     27 H2          0.1192   -2.3455    0.1774 H         1 <0>         0.0000
     28 H3          1.7235   -2.4423    0.9012 H         1 <0>         0.0000
     29 H4         -4.4439   -0.8762    1.7787 H         1 <0>         0.0000
     30 H5         -3.6823    0.7656    1.4943 H         1 <0>         0.0000
     31 H6         -3.7702    1.2355    3.9756 H         1 <0>         0.0000
     32 H7         -4.5121   -0.4063    4.2750 H         1 <0>         0.0000
     33 H8          2.1424   -0.0439    0.2617 H         1 <0>         0.0000
     34 H9          1.8056   -1.0216   -1.1642 H         1 <0>         0.0000
     35 H10        -1.5549   -1.0109   -1.1002 H         1 <0>         0.0000
     36 H11        -0.2502   -0.9888   -2.2986 H         1 <0>         0.0000
     37 H12        -0.1642   -1.9470    2.5432 H         1 <0>         0.0000
     38 H13         1.2083   -0.8412    2.6028 H         1 <0>         0.0000
     39 H14        -1.7813    0.5209   -3.3278 H         1 <0>         0.0000
     40 H15        -2.3468    1.1656   -1.7726 H         1 <0>         0.0000
     41 H16         0.8036    2.3954   -0.7222 H         1 <0>         0.0000
     42 H17         1.5931    1.3357   -1.8936 H         1 <0>         0.0000
     43 H18        -2.5176   -1.5149    3.2477 H         1 <0>         0.0000
     44 H19        -2.6920    4.4480   -6.2399 H         1 <0>         0.0000
     45 H20        -3.3754    5.3251   -4.8805 H         1 <0>         0.0000
     46 H21        -2.1717    6.1161   -5.9191 H         1 <0>         0.0000
     47 H22         2.2428    5.8254   -2.2349 H         1 <0>         0.0000
     48 H23         2.9574    5.0476   -3.6450 H         1 <0>         0.0000
     49 H24         2.1139    6.6020   -3.8314 H         1 <0>         0.0000
     50 H25        -0.7434    0.1988    3.8289 H         1 <0>         0.0000
     51 H26        -1.5804    1.4013    2.8348 H         1 <0>         0.0000
@<TRIPOS>BOND
     1    1    3 1
     2    1   21 3
     3    2    4 ar
     4    2    5 ar
     5    2   26 1
     6    3    4 ar
     7    3    6 ar
     8    4   18 1
     9    5   19 1
    10    5   22 ar
    11    6   22 ar
    12    6   23 1
    13    7   17 1
    14    7   24 am
    15    7   25 2
    16    8   11 1
    17    8   13 1
    18    8   27 1
    19    8   28 1
    20    9   10 1
    21    9   16 1
    22    9   29 1
    23    9   30 1
    24   10   16 1
    25   10   31 1
    26   10   32 1
    27   11   17 1
    28   11   33 1
    29   11   34 1
    30   12   14 1
    31   12   17 1
    32   12   35 1
    33   12   36 1
    34   13   24 1
    35   13   37 1
    36   13   38 1
    37   14   23 1
    38   14   39 1
    39   14   40 1
    40   15   17 1
    41   15   23 1
    42   15   41 1
    43   15   42 1
    44   16   20 1
    45   16   43 1
    46   18   44 1
    47   18   45 1
    48   18   46 1
    49   19   47 1
    50   19   48 1
    51   19   49 1
    52   20   24 1
    53   20   50 1
    54   20   51 1
