@<TRIPOS>MOLECULE
*****
   66    70     0     0     0
SMALL
NO_CHARGES

@<TRIPOS>ATOM
      1 C1         -1.2852   -4.2932   -5.2541 C.ar      1 <0>         0.0000
      2 C2         -1.1241    2.0965   -8.8087 C.ar      1 <0>         0.0000
      3 C3         -0.7302   -3.1951   -5.9079 C.ar      1 <0>         0.0000
      4 C4         -2.6107   -4.2657   -4.8153 C.ar      1 <0>         0.0000
      5 C5         -0.6555    0.8591   -8.3647 C.ar      1 <0>         0.0000
      6 C6         -2.8166   -1.9805   -5.7018 C.ar      1 <0>         0.0000
      7 C7         -2.2779    2.6456   -8.2556 C.ar      1 <0>         0.0000
      8 C8         -1.4827   -2.0266   -6.1525 C.ar      1 <0>         0.0000
      9 C9         -3.3370   -3.0978   -5.0531 C.ar      1 <0>         0.0000
     10 C10        -2.9625    1.8835   -7.2670 C.ar      1 <0>         0.0000
     11 C11        -1.3642    0.2156   -7.3388 C.ar      1 <0>         0.0000
     12 C12        -3.9686    4.3960   -8.1888 C.2       1 <0>         0.0000
     13 C13        -4.4685    3.1748   -4.4397 C.3       1 <0>         0.0000
     14 C14        -6.0974    1.5283   -5.4472 C.3       1 <0>         0.0000
     15 C15        -5.0450    2.8219   -3.0681 C.3       1 <0>         0.0000
     16 C16        -6.5971    1.2609   -4.0260 C.3       1 <0>         0.0000
     17 C17        -6.0083   -3.1956   -1.9546 C.3       1 <0>         0.0000
     18 C18        -4.2819   -1.8942   -2.1042 C.3       1 <0>         0.0000
     19 C19        -4.8774    3.3284   -7.5901 C.3       1 <0>         0.0000
     20 C20        -4.6417    2.0107   -5.4287 C.3       1 <0>         0.0000
     21 C21        -5.3441   -2.1660   -1.0303 C.3       1 <0>         0.0000
     22 C22        -5.6554    2.6288   -8.7215 C.3       1 <0>         0.0000
     23 C23        -1.8193    4.8782   -9.2464 C.3       1 <0>         0.0000
     24 C24        -7.0485    2.2326   -1.8625 C.3       1 <0>         0.0000
     25 N1         -2.4869    0.7145   -6.8112 N.ar      1 <0>         0.0000
     26 N2         -2.7169    3.9556   -8.5571 N.am      1 <0>         0.0000
     27 N3         -4.1324    2.3859   -6.7569 N.pl3     1 <0>         0.0000
     28 N4         -6.4523    2.4452   -3.1769 N.3       1 <0>         0.0000
     29 N5         -4.7783   -3.1170   -2.8141 N.pl3     1 <0>         0.0000
     30 N6         -0.8550   -0.9891   -6.8398 N.pl3     1 <0>         0.0000
     31 O1         -4.3607    5.5470   -8.3696 O.2       1 <0>         0.0000
     32 O2         -5.5928   -1.7165   -4.8647 O.2       1 <0>         0.0000
     33 O3         -5.7635   -4.2494   -4.8312 O.2       1 <0>         0.0000
     34 F1         -4.8405   -2.7002    0.1229 F         1 <0>         0.0000
     35 F2         -6.1186   -1.1011   -0.6729 F         1 <0>         0.0000
     36 S1         -5.0335   -3.0263   -4.4935 S.o2      1 <0>         0.0000
     37 H1         -0.6786   -5.1792   -5.0891 H         1 <0>         0.0000
     38 H2         -0.5706    2.6317   -9.5724 H         1 <0>         0.0000
     39 H3          0.3042   -3.2413   -6.2438 H         1 <0>         0.0000
     40 H4         -3.0640   -5.1102   -4.3082 H         1 <0>         0.0000
     41 H5          0.2360    0.4159   -8.7984 H         1 <0>         0.0000
     42 H6         -3.4211   -1.1005   -5.8655 H         1 <0>         0.0000
     43 H7         -4.9832    4.0660   -4.8152 H         1 <0>         0.0000
     44 H8         -3.4044    3.4200   -4.3494 H         1 <0>         0.0000
     45 H9         -6.1789    0.6120   -6.0382 H         1 <0>         0.0000
     46 H10        -6.7442    2.2894   -5.8969 H         1 <0>         0.0000
     47 H11        -4.4458    2.0041   -2.6130 H         1 <0>         0.0000
     48 H12        -4.9624    3.6853   -2.3991 H         1 <0>         0.0000
     49 H13        -7.6551    0.9816   -4.0606 H         1 <0>         0.0000
     50 H14        -6.0549    0.3949   -3.6056 H         1 <0>         0.0000
     51 H15        -6.1820   -4.1881   -1.5391 H         1 <0>         0.0000
     52 H16        -6.9118   -2.7973   -2.4249 H         1 <0>         0.0000
     53 H17        -4.4765   -0.9617   -2.6416 H         1 <0>         0.0000
     54 H18        -3.2404   -1.9674   -1.7882 H         1 <0>         0.0000
     55 H19        -5.5756    3.8718   -6.9551 H         1 <0>         0.0000
     56 H20        -4.0166    1.1793   -5.0978 H         1 <0>         0.0000
     57 H21        -4.9713    2.0827   -9.3784 H         1 <0>         0.0000
     58 H22        -6.1992    3.3677   -9.3175 H         1 <0>         0.0000
     59 H23        -6.3686    1.9154   -8.3023 H         1 <0>         0.0000
     60 H24        -1.6644    4.5722  -10.2871 H         1 <0>         0.0000
     61 H25        -0.8523    4.9153   -8.7353 H         1 <0>         0.0000
     62 H26        -2.2820    5.8636   -9.2332 H         1 <0>         0.0000
     63 H27        -6.9698    3.1497   -1.2693 H         1 <0>         0.0000
     64 H28        -6.5698    1.4123   -1.2974 H         1 <0>         0.0000
     65 H29        -8.1106    1.9924   -1.9745 H         1 <0>         0.0000
     66 H30         0.0453   -1.2373   -7.2276 H         1 <0>         0.0000
@<TRIPOS>BOND
     1    1    3 ar
     2    1    4 ar
     3    1   37 1
     4    2    5 ar
     5    2    7 ar
     6    2   38 1
     7    3    8 ar
     8    3   39 1
     9    4    9 ar
    10    4   40 1
    11    5   11 ar
    12    5   41 1
    13    6    8 ar
    14    6    9 ar
    15    6   42 1
    16    7   10 ar
    17    7   26 1
    18    8   30 1
    19    9   36 1
    20   10   25 ar
    21   10   27 1
    22   11   25 ar
    23   11   30 1
    24   12   19 1
    25   12   26 am
    26   12   31 2
    27   13   15 1
    28   13   20 1
    29   13   43 1
    30   13   44 1
    31   14   16 1
    32   14   20 1
    33   14   45 1
    34   14   46 1
    35   15   28 1
    36   15   47 1
    37   15   48 1
    38   16   28 1
    39   16   49 1
    40   16   50 1
    41   17   21 1
    42   17   29 1
    43   17   51 1
    44   17   52 1
    45   18   21 1
    46   18   29 1
    47   18   53 1
    48   18   54 1
    49   19   22 1
    50   19   27 1
    51   19   55 1
    52   20   27 1
    53   20   56 1
    54   21   34 1
    55   21   35 1
    56   22   57 1
    57   22   58 1
    58   22   59 1
    59   23   26 1
    60   23   60 1
    61   23   61 1
    62   23   62 1
    63   24   28 1
    64   24   63 1
    65   24   64 1
    66   24   65 1
    67   29   36 1
    68   30   66 1
    69   32   36 2
    70   33   36 2
