@<TRIPOS>MOLECULE
*****
   51    54     0     0     0
SMALL
NO_CHARGES

@<TRIPOS>ATOM
      1 C1         -2.6984    2.5120   -3.3010 C.1       1 <0>         0.0000
      2 C2         -0.2937    5.3105   -3.5135 C.ar      1 <0>         0.0000
      3 C3         -1.4916    3.2553   -3.1182 C.ar      1 <0>         0.0000
      4 C4         -1.4352    4.5355   -3.7119 C.ar      1 <0>         0.0000
      5 C5          0.7485    4.8036   -2.7259 C.ar      1 <0>         0.0000
      6 C6         -0.3687    2.7978   -2.3507 C.ar      1 <0>         0.0000
      7 C7         -0.3280    0.1711    1.0953 C.2       1 <0>         0.0000
      8 C8          1.3722   -2.1777    0.8481 C.3       1 <0>         0.0000
      9 C9          0.6004   -0.2207    5.3381 C.3       1 <0>         0.0000
     10 C10        -0.7559    0.3019    5.7660 C.3       1 <0>         0.0000
     11 C11         1.7194   -0.9303    0.0411 C.3       1 <0>         0.0000
     12 C12        -0.5055   -0.6977   -1.2301 C.3       1 <0>         0.0000
     13 C13         0.8141   -1.7688    2.2049 C.3       1 <0>         0.0000
     14 C14        -1.2674    0.4944   -1.8129 C.3       1 <0>         0.0000
     15 C15         0.8283    1.2761   -0.8507 C.3       1 <0>         0.0000
     16 C16        -0.3473    0.3663    4.3128 C.3       1 <0>         0.0000
     17 C17         0.4715   -0.0726   -0.1965 C.3       1 <0>         0.0000
     18 C18        -2.5925    5.0533   -4.5263 C.3       1 <0>         0.0000
     19 C19         1.9949    5.6107   -2.4620 C.3       1 <0>         0.0000
     20 C20        -1.0461   -0.5234    3.3053 C.3       1 <0>         0.0000
     21 N1         -3.7186    1.9784   -3.4981 N.1       1 <0>         0.0000
     22 N2          0.7109    3.5911   -2.1694 N.ar      1 <0>         0.0000
     23 N3         -0.2805    1.5760   -1.7642 N.pl3     1 <0>         0.0000
     24 N4         -0.2541   -0.7688    2.0930 N.am      1 <0>         0.0000
     25 O1         -1.0803    1.1468    1.1849 O.2       1 <0>         0.0000
     26 H1         -0.2178    6.3001   -3.9528 H         1 <0>         0.0000
     27 H2          0.6375   -2.7845    0.3074 H         1 <0>         0.0000
     28 H3          2.2574   -2.8032    1.0043 H         1 <0>         0.0000
     29 H4          1.4829    0.3502    5.6125 H         1 <0>         0.0000
     30 H5          0.7446   -1.2982    5.3424 H         1 <0>         0.0000
     31 H6         -1.5108   -0.4277    6.0482 H         1 <0>         0.0000
     32 H7         -0.7992    1.2298    6.3280 H         1 <0>         0.0000
     33 H8          2.4697   -0.3423    0.5869 H         1 <0>         0.0000
     34 H9          2.1659   -1.1950   -0.9240 H         1 <0>         0.0000
     35 H10        -1.1805   -1.4399   -0.7977 H         1 <0>         0.0000
     36 H11         0.0819   -1.1882   -2.0147 H         1 <0>         0.0000
     37 H12         0.4027   -2.6397    2.7271 H         1 <0>         0.0000
     38 H13         1.6231   -1.3717    2.8336 H         1 <0>         0.0000
     39 H14        -1.5924    0.3008   -2.8361 H         1 <0>         0.0000
     40 H15        -2.1444    0.7401   -1.2071 H         1 <0>         0.0000
     41 H16         0.9459    2.0749   -0.1170 H         1 <0>         0.0000
     42 H17         1.7679    1.1956   -1.4101 H         1 <0>         0.0000
     43 H18        -0.0996    1.3510    3.9254 H         1 <0>         0.0000
     44 H19        -2.8144    4.3849   -5.3644 H         1 <0>         0.0000
     45 H20        -3.5026    5.1097   -3.9203 H         1 <0>         0.0000
     46 H21        -2.3756    6.0483   -4.9214 H         1 <0>         0.0000
     47 H22         2.1437    5.7264   -1.3837 H         1 <0>         0.0000
     48 H23         2.8720    5.0855   -2.8544 H         1 <0>         0.0000
     49 H24         1.9434    6.6011   -2.9208 H         1 <0>         0.0000
     50 H25        -1.9852   -0.0621    2.9959 H         1 <0>         0.0000
     51 H26        -1.2733   -1.4964    3.7566 H         1 <0>         0.0000
@<TRIPOS>BOND
     1    1    3 1
     2    1   21 3
     3    2    4 ar
     4    2    5 ar
     5    2   26 1
     6    3    4 ar
     7    3    6 ar
     8    4   18 1
     9    5   19 1
    10    5   22 ar
    11    6   22 ar
    12    6   23 1
    13    7   17 1
    14    7   24 am
    15    7   25 2
    16    8   11 1
    17    8   13 1
    18    8   27 1
    19    8   28 1
    20    9   10 1
    21    9   16 1
    22    9   29 1
    23    9   30 1
    24   10   16 1
    25   10   31 1
    26   10   32 1
    27   11   17 1
    28   11   33 1
    29   11   34 1
    30   12   14 1
    31   12   17 1
    32   12   35 1
    33   12   36 1
    34   13   24 1
    35   13   37 1
    36   13   38 1
    37   14   23 1
    38   14   39 1
    39   14   40 1
    40   15   17 1
    41   15   23 1
    42   15   41 1
    43   15   42 1
    44   16   20 1
    45   16   43 1
    46   18   44 1
    47   18   45 1
    48   18   46 1
    49   19   47 1
    50   19   48 1
    51   19   49 1
    52   20   24 1
    53   20   50 1
    54   20   51 1
