@<TRIPOS>MOLECULE
*****
   51    54     0     0     0
SMALL
NO_CHARGES

@<TRIPOS>ATOM
      1 C1          3.0733    0.1743    3.1020 C.1       1 <0>         0.0000
      2 C2          1.8570   -0.5175    6.5246 C.ar      1 <0>         0.0000
      3 C3          2.2146   -0.2693    4.1545 C.ar      1 <0>         0.0000
      4 C4          2.6323   -0.0176    5.4800 C.ar      1 <0>         0.0000
      5 C5          0.7103   -1.2680    6.2294 C.ar      1 <0>         0.0000
      6 C6          0.9989   -1.0003    3.9387 C.ar      1 <0>         0.0000
      7 C7          0.0145   -0.9167   -0.9436 C.2       1 <0>         0.0000
      8 C8         -0.8131    1.7078    0.1567 C.3       1 <0>         0.0000
      9 C9          0.0310    1.3017   -5.2658 C.3       1 <0>         0.0000
     10 C10        -0.4535    2.2835   -4.2184 C.3       1 <0>         0.0000
     11 C11        -1.3630    0.3710    0.7025 C.3       1 <0>         0.0000
     12 C12        -0.9726   -2.1209    1.0620 C.3       1 <0>         0.0000
     13 C13         0.3828    1.5179   -0.7951 C.3       1 <0>         0.0000
     14 C14        -0.7585   -2.0610    2.5752 C.3       1 <0>         0.0000
     15 C15         0.8642   -0.6314    1.4482 C.3       1 <0>         0.0000
     16 C16        -0.3516    0.8071   -3.8907 C.3       1 <0>         0.0000
     17 C17        -0.3772   -0.8034    0.5372 C.3       1 <0>         0.0000
     18 C18         3.8989    0.7525    5.7500 C.3       1 <0>         0.0000
     19 C19        -0.1309   -1.8760    7.3230 C.3       1 <0>         0.0000
     20 C20         0.7212    0.2770   -2.9616 C.3       1 <0>         0.0000
     21 N1          3.8266    0.5531    2.2934 N.1       1 <0>         0.0000
     22 N2          0.2962   -1.4946    4.9801 N.ar      1 <0>         0.0000
     23 N3          0.4696   -1.2602    2.7121 N.pl3     1 <0>         0.0000
     24 N4          0.2997    0.2705   -1.5586 N.am      1 <0>         0.0000
     25 O1          0.0396   -2.0006   -1.5331 O.2       1 <0>         0.0000
     26 H1          2.1483   -0.3457    7.5560 H         1 <0>         0.0000
     27 H2         -1.6132    2.2329   -0.3731 H         1 <0>         0.0000
     28 H3         -0.4962    2.3630    0.9742 H         1 <0>         0.0000
     29 H4         -0.6260    1.0656   -6.0974 H         1 <0>         0.0000
     30 H5          1.0875    1.3198   -5.5211 H         1 <0>         0.0000
     31 H6          0.2842    2.9579   -3.7912 H         1 <0>         0.0000
     32 H7         -1.4414    2.7192   -4.3378 H         1 <0>         0.0000
     33 H8         -1.6391    0.4744    1.7570 H         1 <0>         0.0000
     34 H9         -2.2800    0.1060    0.1661 H         1 <0>         0.0000
     35 H10        -0.4262   -2.9560    0.6194 H         1 <0>         0.0000
     36 H11        -2.0263   -2.2344    0.7950 H         1 <0>         0.0000
     37 H12         0.4141    2.3405   -1.5097 H         1 <0>         0.0000
     38 H13         1.3298    1.5484   -0.2414 H         1 <0>         0.0000
     39 H14        -1.5871   -1.5740    3.1015 H         1 <0>         0.0000
     40 H15        -0.6257   -3.0456    3.0295 H         1 <0>         0.0000
     41 H16         1.7409   -1.1239    1.0133 H         1 <0>         0.0000
     42 H17         1.1153    0.4164    1.6092 H         1 <0>         0.0000
     43 H18        -1.2917    0.2648   -3.8210 H         1 <0>         0.0000
     44 H19         4.7681    0.2305    5.3364 H         1 <0>         0.0000
     45 H20         3.8697    1.7387    5.2758 H         1 <0>         0.0000
     46 H21         4.0526    0.8855    6.8231 H         1 <0>         0.0000
     47 H22        -1.1777   -1.5821    7.2003 H         1 <0>         0.0000
     48 H23        -0.0931   -2.9687    7.2575 H         1 <0>         0.0000
     49 H24         0.2110   -1.5734    8.3157 H         1 <0>         0.0000
     50 H25         1.6348    0.8782   -3.0533 H         1 <0>         0.0000
     51 H26         0.9677   -0.7525   -3.2256 H         1 <0>         0.0000
@<TRIPOS>BOND
     1    1    3 1
     2    1   21 3
     3    2    4 ar
     4    2    5 ar
     5    2   26 1
     6    3    4 ar
     7    3    6 ar
     8    4   18 1
     9    5   19 1
    10    5   22 ar
    11    6   22 ar
    12    6   23 1
    13    7   17 1
    14    7   24 am
    15    7   25 2
    16    8   11 1
    17    8   13 1
    18    8   27 1
    19    8   28 1
    20    9   10 1
    21    9   16 1
    22    9   29 1
    23    9   30 1
    24   10   16 1
    25   10   31 1
    26   10   32 1
    27   11   17 1
    28   11   33 1
    29   11   34 1
    30   12   14 1
    31   12   17 1
    32   12   35 1
    33   12   36 1
    34   13   24 1
    35   13   37 1
    36   13   38 1
    37   14   23 1
    38   14   39 1
    39   14   40 1
    40   15   17 1
    41   15   23 1
    42   15   41 1
    43   15   42 1
    44   16   20 1
    45   16   43 1
    46   18   44 1
    47   18   45 1
    48   18   46 1
    49   19   47 1
    50   19   48 1
    51   19   49 1
    52   20   24 1
    53   20   50 1
    54   20   51 1
