@<TRIPOS>MOLECULE
*****
   35    37     0     0     0
SMALL
NO_CHARGES

@<TRIPOS>ATOM
      1 C1          0.4239   -1.9429    0.7712 C.ar      1 <0>         0.0000
      2 C2         -1.4091   -2.9647    2.4580 C.ar      1 <0>         0.0000
      3 C3         -1.6849    1.7646    3.3023 C.2       1 <0>         0.0000
      4 C4         -2.1933   -4.0020    3.1060 C.2       1 <0>         0.0000
      5 C5         -2.2541    2.0480    2.0115 C.2       1 <0>         0.0000
      6 C6         -2.1150    2.8002    4.0859 C.2       1 <0>         0.0000
      7 C7         -0.9811   -1.6022    2.5934 C.ar      1 <0>         0.0000
      8 C8         -0.8512   -3.6402    1.3550 C.ar      1 <0>         0.0000
      9 C9         -2.9740   -4.0645    4.3878 C.3       1 <0>         0.0000
     10 C10        -2.1419    1.2474    0.7513 C.3       1 <0>         0.0000
     11 C11        -1.9125    3.1631    5.5179 C.3       1 <0>         0.0000
     12 C12        -2.6885   -0.9251    4.2524 C.3       1 <0>         0.0000
     13 C13        -0.8159    0.6041    3.6886 C.3       1 <0>         0.0000
     14 N1         -0.0214   -1.1535    1.7518 N.ar      1 <0>         0.0000
     15 N2          0.0385   -3.1881    0.4756 N.ar      1 <0>         0.0000
     16 N3         -2.1251   -5.1247    2.4284 N.2       1 <0>         0.0000
     17 N4         -2.9574    3.1585    2.0297 N.2       1 <0>         0.0000
     18 N5         -1.4732   -0.6996    3.4895 N.pl3     1 <0>         0.0000
     19 O1         -2.8703    3.6467    3.3490 O.3       1 <0>         0.0000
     20 O2         -1.2981   -4.9081    1.3057 O.3       1 <0>         0.0000
     21 H1          1.1892   -1.5109    0.1287 H         1 <0>         0.0000
     22 H2         -3.9003   -3.4872    4.3386 H         1 <0>         0.0000
     23 H3         -3.2334   -5.1074    4.5793 H         1 <0>         0.0000
     24 H4         -2.3829   -3.6926    5.2284 H         1 <0>         0.0000
     25 H5         -2.6514    0.2845    0.8599 H         1 <0>         0.0000
     26 H6         -2.5948    1.7921   -0.0795 H         1 <0>         0.0000
     27 H7         -1.0961    1.0296    0.5223 H         1 <0>         0.0000
     28 H8         -1.3010    4.0670    5.6085 H         1 <0>         0.0000
     29 H9         -2.8725    3.3604    6.0049 H         1 <0>         0.0000
     30 H10        -1.4088    2.3548    6.0523 H         1 <0>         0.0000
     31 H11        -3.1551    0.0422    4.4515 H         1 <0>         0.0000
     32 H12        -2.4969   -1.4213    5.2103 H         1 <0>         0.0000
     33 H13        -3.3964   -1.5172    3.6725 H         1 <0>         0.0000
     34 H14         0.1019    0.5945    3.1041 H         1 <0>         0.0000
     35 H15        -0.5397    0.6879    4.7467 H         1 <0>         0.0000
@<TRIPOS>BOND
     1    1   14 ar
     2    1   15 ar
     3    1   21 1
     4    2    4 1
     5    2    7 ar
     6    2    8 ar
     7    3    5 1
     8    3    6 2
     9    3   13 1
    10    4    9 1
    11    4   16 2
    12    5   10 1
    13    5   17 2
    14    6   11 1
    15    6   19 1
    16    7   14 ar
    17    7   18 1
    18    8   15 ar
    19    8   20 1
    20    9   22 1
    21    9   23 1
    22    9   24 1
    23   10   25 1
    24   10   26 1
    25   10   27 1
    26   11   28 1
    27   11   29 1
    28   11   30 1
    29   12   18 1
    30   12   31 1
    31   12   32 1
    32   12   33 1
    33   13   18 1
    34   13   34 1
    35   13   35 1
    36   16   20 1
    37   17   19 1
