@<TRIPOS>MOLECULE
*****
   51    54     0     0     0
SMALL
NO_CHARGES

@<TRIPOS>ATOM
      1 C1          0.0909   -3.2832   -2.9416 C.1       1 <0>         0.0000
      2 C2         -0.4712   -1.4076   -6.0784 C.ar      1 <0>         0.0000
      3 C3         -0.0896   -2.1762   -3.8269 C.ar      1 <0>         0.0000
      4 C4         -0.3995   -2.4658   -5.1733 C.ar      1 <0>         0.0000
      5 C5         -0.2060   -0.1055   -5.6334 C.ar      1 <0>         0.0000
      6 C6          0.1039   -0.8092   -3.4400 C.ar      1 <0>         0.0000
      7 C7          0.4167   -0.6142    1.5089 C.2       1 <0>         0.0000
      8 C8         -1.9070    1.1241    1.4121 C.3       1 <0>         0.0000
      9 C9          0.9463    1.7369    4.4153 C.3       1 <0>         0.0000
     10 C10         2.1986    0.9517    4.0826 C.3       1 <0>         0.0000
     11 C11        -1.5941    0.2861    0.1767 C.3       1 <0>         0.0000
     12 C12         0.7925    1.0304   -0.3516 C.3       1 <0>         0.0000
     13 C13        -1.6272    0.3001    2.6600 C.3       1 <0>         0.0000
     14 C14         0.6141    1.0103   -1.8712 C.3       1 <0>         0.0000
     15 C15         0.1380   -1.1921   -0.9390 C.3       1 <0>         0.0000
     16 C16         1.0178    0.2512    4.7090 C.3       1 <0>         0.0000
     17 C17        -0.1117   -0.1268    0.1493 C.3       1 <0>         0.0000
     18 C18        -0.6173   -3.8883   -5.6197 C.3       1 <0>         0.0000
     19 C19        -0.2075    1.0632   -6.5862 C.3       1 <0>         0.0000
     20 C20         0.2079   -0.7815    3.9339 C.3       1 <0>         0.0000
     21 N1          0.2412   -4.2379   -2.2860 N.1       1 <0>         0.0000
     22 N2          0.0666    0.1812   -4.3573 N.ar      1 <0>         0.0000
     23 N3          0.3492   -0.4055   -2.1637 N.pl3     1 <0>         0.0000
     24 N4         -0.2911   -0.3051    2.6399 N.am      1 <0>         0.0000
     25 O1          1.4955   -1.2119    1.5653 O.2       1 <0>         0.0000
     26 H1         -0.7046   -1.5926   -7.1222 H         1 <0>         0.0000
     27 H2         -1.3002    2.0367    1.4247 H         1 <0>         0.0000
     28 H3         -2.9567    1.4356    1.4186 H         1 <0>         0.0000
     29 H4          0.9701    2.4267    5.2542 H         1 <0>         0.0000
     30 H5          0.3385    2.0668    3.5786 H         1 <0>         0.0000
     31 H6          2.4003    0.7398    3.0381 H         1 <0>         0.0000
     32 H7          3.0830    1.1073    4.6936 H         1 <0>         0.0000
     33 H8         -2.2197   -0.6153    0.1938 H         1 <0>         0.0000
     34 H9         -1.8502    0.8238   -0.7418 H         1 <0>         0.0000
     35 H10         1.8287    0.8062   -0.0861 H         1 <0>         0.0000
     36 H11         0.5283    1.9981    0.0822 H         1 <0>         0.0000
     37 H12        -1.6982    0.9225    3.5568 H         1 <0>         0.0000
     38 H13        -2.3822   -0.4947    2.7596 H         1 <0>         0.0000
     39 H14        -0.2233    1.6328   -2.2052 H         1 <0>         0.0000
     40 H15         1.5011    1.3569   -2.4076 H         1 <0>         0.0000
     41 H16         1.0148   -1.7923   -0.6879 H         1 <0>         0.0000
     42 H17        -0.7206   -1.8571   -1.0481 H         1 <0>         0.0000
     43 H18         1.1299   -0.0116    5.7592 H         1 <0>         0.0000
     44 H19         0.2868   -4.4868   -5.4667 H         1 <0>         0.0000
     45 H20        -1.4123   -4.3667   -5.0390 H         1 <0>         0.0000
     46 H21        -0.8847   -3.9279   -6.6779 H         1 <0>         0.0000
     47 H22        -0.8654    1.8537   -6.2125 H         1 <0>         0.0000
     48 H23         0.7998    1.4879   -6.6564 H         1 <0>         0.0000
     49 H24        -0.5336    0.7714   -7.5875 H         1 <0>         0.0000
     50 H25        -0.6636   -1.0820    4.5274 H         1 <0>         0.0000
     51 H26         0.8182   -1.6688    3.7551 H         1 <0>         0.0000
@<TRIPOS>BOND
     1    1    3 1
     2    1   21 3
     3    2    4 ar
     4    2    5 ar
     5    2   26 1
     6    3    4 ar
     7    3    6 ar
     8    4   18 1
     9    5   19 1
    10    5   22 ar
    11    6   22 ar
    12    6   23 1
    13    7   17 1
    14    7   24 am
    15    7   25 2
    16    8   11 1
    17    8   13 1
    18    8   27 1
    19    8   28 1
    20    9   10 1
    21    9   16 1
    22    9   29 1
    23    9   30 1
    24   10   16 1
    25   10   31 1
    26   10   32 1
    27   11   17 1
    28   11   33 1
    29   11   34 1
    30   12   14 1
    31   12   17 1
    32   12   35 1
    33   12   36 1
    34   13   24 1
    35   13   37 1
    36   13   38 1
    37   14   23 1
    38   14   39 1
    39   14   40 1
    40   15   17 1
    41   15   23 1
    42   15   41 1
    43   15   42 1
    44   16   20 1
    45   16   43 1
    46   18   44 1
    47   18   45 1
    48   18   46 1
    49   19   47 1
    50   19   48 1
    51   19   49 1
    52   20   24 1
    53   20   50 1
    54   20   51 1
