@<TRIPOS>MOLECULE
*****
   70    74     0     0     0
SMALL
NO_CHARGES

@<TRIPOS>ATOM
      1 C1         -4.8615    1.4264   -3.0343 C.ar      1 <0>         0.0000
      2 C2         -2.0573    7.6328   -0.3748 C.ar      1 <0>         0.0000
      3 C3         -3.8831    2.3909   -2.8089 C.ar      1 <0>         0.0000
      4 C4         -6.0511    1.4287   -2.2985 C.ar      1 <0>         0.0000
      5 C5         -2.1606    6.5449   -1.2457 C.ar      1 <0>         0.0000
      6 C6         -5.2354    3.3869   -1.0632 C.ar      1 <0>         0.0000
      7 C7         -2.7720    7.6431    0.8203 C.ar      1 <0>         0.0000
      8 C8         -4.0540    3.3913   -1.8272 C.ar      1 <0>         0.0000
      9 C9         -6.2053    2.4198   -1.3281 C.ar      1 <0>         0.0000
     10 C10        -3.6174    6.5304    1.0902 C.ar      1 <0>         0.0000
     11 C11        -2.9805    5.4726   -0.8647 C.ar      1 <0>         0.0000
     12 C12        -3.4682    8.7574    2.8717 C.2       1 <0>         0.0000
     13 C13        -4.0924    5.0443    4.2065 C.3       1 <0>         0.0000
     14 C14        -6.3439    5.2532    3.0951 C.3       1 <0>         0.0000
     15 C15        -4.5976    3.7631    4.8730 C.3       1 <0>         0.0000
     16 C16        -6.7423    3.9561    3.8018 C.3       1 <0>         0.0000
     17 C17        -9.0833    3.2161   -2.7025 C.3       1 <0>         0.0000
     18 C18        -8.2065    5.0488   -1.3368 C.3       1 <0>         0.0000
     19 C19       -10.1548    4.1769   -3.2135 C.3       1 <0>         0.0000
     20 C20        -9.3147    5.9342   -1.9021 C.3       1 <0>         0.0000
     21 C21        -4.6839    7.8374    2.8223 C.3       1 <0>         0.0000
     22 C22        -4.8273    5.2956    2.8806 C.3       1 <0>         0.0000
     23 C23        -5.8270    8.5445    2.0674 C.3       1 <0>         0.0000
     24 C24        -1.4726    9.5635    1.7134 C.3       1 <0>         0.0000
     25 C25        -6.5143    2.6482    5.8148 C.3       1 <0>         0.0000
     26 N1         -3.6916    5.4753    0.2672 N.ar      1 <0>         0.0000
     27 N2         -2.6032    8.6439    1.8048 N.am      1 <0>         0.0000
     28 N3         -4.3515    6.5363    2.2484 N.pl3     1 <0>         0.0000
     29 N4         -6.0435    3.8190    5.0843 N.3       1 <0>         0.0000
     30 N5         -8.6830    3.6551   -1.3545 N.pl3     1 <0>         0.0000
     31 N6         -3.0420    4.3427   -1.6890 N.pl3     1 <0>         0.0000
     32 O1         -3.3159    9.5714    3.7800 O.2       1 <0>         0.0000
     33 O2         -8.4617    1.2614   -0.5709 O.2       1 <0>         0.0000
     34 O3         -7.5292    3.1857    0.8369 O.2       1 <0>         0.0000
     35 O4         -9.6917    5.5254   -3.2146 O.3       1 <0>         0.0000
     36 S1         -7.7702    2.5461   -0.4589 S.o2      1 <0>         0.0000
     37 H1         -4.6950    0.6641   -3.7905 H         1 <0>         0.0000
     38 H2         -1.4009    8.4573   -0.6312 H         1 <0>         0.0000
     39 H3         -2.9675    2.3730   -3.3970 H         1 <0>         0.0000
     40 H4         -6.8214    0.6809   -2.4500 H         1 <0>         0.0000
     41 H5         -1.6169    6.5337   -2.1856 H         1 <0>         0.0000
     42 H6         -5.3749    4.1121   -0.2755 H         1 <0>         0.0000
     43 H7         -4.2531    5.8829    4.8933 H         1 <0>         0.0000
     44 H8         -3.0154    4.9701    4.0190 H         1 <0>         0.0000
     45 H9         -6.8604    5.3115    2.1331 H         1 <0>         0.0000
     46 H10        -6.6648    6.0990    3.7142 H         1 <0>         0.0000
     47 H11        -4.3176    2.8887    4.2499 H         1 <0>         0.0000
     48 H12        -4.1061    3.6351    5.8438 H         1 <0>         0.0000
     49 H13        -7.8207    3.9610    3.9895 H         1 <0>         0.0000
     50 H14        -6.5399    3.0992    3.1358 H         1 <0>         0.0000
     51 H15        -9.4879    2.2046   -2.6356 H         1 <0>         0.0000
     52 H16        -8.2236    3.2178   -3.3896 H         1 <0>         0.0000
     53 H17        -7.2950    5.1635   -1.9423 H         1 <0>         0.0000
     54 H18        -7.9882    5.3327   -0.3059 H         1 <0>         0.0000
     55 H19       -10.4129    3.9364   -4.2478 H         1 <0>         0.0000
     56 H20       -11.0551    4.0875   -2.5882 H         1 <0>         0.0000
     57 H21       -10.1864    5.9040   -1.2320 H         1 <0>         0.0000
     58 H22        -8.9644    6.9660   -1.9863 H         1 <0>         0.0000
     59 H23        -4.9764    7.6912    3.8612 H         1 <0>         0.0000
     60 H24        -4.5666    4.4959    2.1851 H         1 <0>         0.0000
     61 H25        -5.5533    8.7073    1.0200 H         1 <0>         0.0000
     62 H26        -6.0410    9.5134    2.5282 H         1 <0>         0.0000
     63 H27        -6.7306    7.9310    2.0957 H         1 <0>         0.0000
     64 H28        -1.5915   10.2490    0.8668 H         1 <0>         0.0000
     65 H29        -0.5401    9.0032    1.5935 H         1 <0>         0.0000
     66 H30        -1.4393   10.1420    2.6349 H         1 <0>         0.0000
     67 H31        -6.0097    2.5889    6.7849 H         1 <0>         0.0000
     68 H32        -6.3343    1.6997    5.2736 H         1 <0>         0.0000
     69 H33        -7.5904    2.7346    5.9966 H         1 <0>         0.0000
     70 H34        -2.3681    4.3468   -2.4428 H         1 <0>         0.0000
@<TRIPOS>BOND
     1    1    3 ar
     2    1    4 ar
     3    1   37 1
     4    2    5 ar
     5    2    7 ar
     6    2   38 1
     7    3    8 ar
     8    3   39 1
     9    4    9 ar
    10    4   40 1
    11    5   11 ar
    12    5   41 1
    13    6    8 ar
    14    6    9 ar
    15    6   42 1
    16    7   10 ar
    17    7   27 1
    18    8   31 1
    19    9   36 1
    20   10   26 ar
    21   10   28 1
    22   11   26 ar
    23   11   31 1
    24   12   21 1
    25   12   27 am
    26   12   32 2
    27   13   15 1
    28   13   22 1
    29   13   43 1
    30   13   44 1
    31   14   16 1
    32   14   22 1
    33   14   45 1
    34   14   46 1
    35   15   29 1
    36   15   47 1
    37   15   48 1
    38   16   29 1
    39   16   49 1
    40   16   50 1
    41   17   19 1
    42   17   30 1
    43   17   51 1
    44   17   52 1
    45   18   20 1
    46   18   30 1
    47   18   53 1
    48   18   54 1
    49   19   35 1
    50   19   55 1
    51   19   56 1
    52   20   35 1
    53   20   57 1
    54   20   58 1
    55   21   23 1
    56   21   28 1
    57   21   59 1
    58   22   28 1
    59   22   60 1
    60   23   61 1
    61   23   62 1
    62   23   63 1
    63   24   27 1
    64   24   64 1
    65   24   65 1
    66   24   66 1
    67   25   29 1
    68   25   67 1
    69   25   68 1
    70   25   69 1
    71   30   36 1
    72   31   70 1
    73   33   36 2
    74   34   36 2
