@<TRIPOS>MOLECULE
*****
   38    39     0     0     0
SMALL
NO_CHARGES

@<TRIPOS>ATOM
      1 C1          3.2031    3.5051   -0.5485 C.1       1 <0>         0.0000
      2 C2          1.4705    1.8814   -1.3172 C.2       1 <0>         0.0000
      3 C3         -1.4522    0.0183   -1.1983 C.3       1 <0>         0.0000
      4 C4          0.7267    0.2256    2.8369 C.3       1 <0>         0.0000
      5 C5         -1.1378   -1.0762   -0.1669 C.3       1 <0>         0.0000
      6 C6         -0.1622    0.4791    1.6134 C.3       1 <0>         0.0000
      7 C7         -0.2340    0.3016   -2.0828 C.3       1 <0>         0.0000
      8 C8          0.6320   -1.2896    3.0243 C.3       1 <0>         0.0000
      9 C9          1.2874   -0.4179   -0.2959 C.3       1 <0>         0.0000
     10 C10         0.1044   -0.7121    0.6637 C.3       1 <0>         0.0000
     11 C11        -0.9272   -4.1303    1.6519 C.3       1 <0>         0.0000
     12 C12         2.6845    2.1431   -0.3985 C.3       1 <0>         0.0000
     13 N1          3.6567    4.5724   -0.6149 N.1       1 <0>         0.0000
     14 N2          0.9327    0.6254   -1.2536 N.am      1 <0>         0.0000
     15 N3          0.5230   -1.7699    1.6303 N.pl3     1 <0>         0.0000
     16 O1          1.0515    2.7595   -2.0642 O.2       1 <0>         0.0000
     17 O2          1.6202   -3.9382    2.2728 O.2       1 <0>         0.0000
     18 O3          0.9114   -3.5172   -0.1477 O.2       1 <0>         0.0000
     19 S1          0.6805   -3.3852    1.2951 S.o2      1 <0>         0.0000
     20 H1         -2.2900   -0.2982   -1.8289 H         1 <0>         0.0000
     21 H2         -1.7575    0.9450   -0.6998 H         1 <0>         0.0000
     22 H3          1.7649    0.5084    2.6339 H         1 <0>         0.0000
     23 H4          0.3967    0.7749    3.7218 H         1 <0>         0.0000
     24 H5         -1.9910   -1.2334    0.5029 H         1 <0>         0.0000
     25 H6         -0.9508   -2.0135   -0.6999 H         1 <0>         0.0000
     26 H7         -1.2157    0.4727    1.9137 H         1 <0>         0.0000
     27 H8          0.0279    1.4385    1.1286 H         1 <0>         0.0000
     28 H9          0.0099   -0.5847   -2.6829 H         1 <0>         0.0000
     29 H10        -0.4113    1.1395   -2.7551 H         1 <0>         0.0000
     30 H11         1.5049   -1.7287    3.5076 H         1 <0>         0.0000
     31 H12        -0.2621   -1.5566    3.6054 H         1 <0>         0.0000
     32 H13         2.1651   -0.1410    0.2846 H         1 <0>         0.0000
     33 H14         1.5320   -1.3377   -0.8347 H         1 <0>         0.0000
     34 H15        -0.8194   -5.2059    1.4993 H         1 <0>         0.0000
     35 H16        -1.1842   -3.9220    2.6917 H         1 <0>         0.0000
     36 H17        -1.6695   -3.7181    0.9690 H         1 <0>         0.0000
     37 H18         2.4179    1.9979    0.6529 H         1 <0>         0.0000
     38 H19         3.4904    1.4367   -0.6234 H         1 <0>         0.0000
@<TRIPOS>BOND
     1    1   12 1
     2    1   13 3
     3    2   12 1
     4    2   14 am
     5    2   16 2
     6    3    5 1
     7    3    7 1
     8    3   20 1
     9    3   21 1
    10    4    6 1
    11    4    8 1
    12    4   22 1
    13    4   23 1
    14    5   10 1
    15    5   24 1
    16    5   25 1
    17    6   10 1
    18    6   26 1
    19    6   27 1
    20    7   14 1
    21    7   28 1
    22    7   29 1
    23    8   15 1
    24    8   30 1
    25    8   31 1
    26    9   10 1
    27    9   14 1
    28    9   32 1
    29    9   33 1
    30   10   15 1
    31   11   19 1
    32   11   34 1
    33   11   35 1
    34   11   36 1
    35   12   37 1
    36   12   38 1
    37   15   19 1
    38   17   19 2
    39   18   19 2
