@<TRIPOS>MOLECULE
*****
   38    39     0     0     0
SMALL
NO_CHARGES

@<TRIPOS>ATOM
      1 C1          1.6008    2.2840   -3.5183 C.1       1 <0>         0.0000
      2 C2          1.3887    1.5863   -1.1046 C.2       1 <0>         0.0000
      3 C3         -1.8556    0.3009   -1.4271 C.3       1 <0>         0.0000
      4 C4         -0.0339    0.1471    2.7932 C.3       1 <0>         0.0000
      5 C5         -1.8253   -0.8162   -0.3742 C.3       1 <0>         0.0000
      6 C6         -0.7314    0.5580    1.4926 C.3       1 <0>         0.0000
      7 C7         -0.5327    0.3661   -2.2008 C.3       1 <0>         0.0000
      8 C8         -0.4376   -1.3188    2.9525 C.3       1 <0>         0.0000
      9 C9          0.6774   -0.5944   -0.2925 C.3       1 <0>         0.0000
     10 C10        -0.6100   -0.6719    0.5590 C.3       1 <0>         0.0000
     11 C11         1.5763   -3.5829    1.3776 C.3       1 <0>         0.0000
     12 C12         1.2857    2.7154   -2.1531 C.3       1 <0>         0.0000
     13 N1          1.8467    1.9246   -4.5965 N.1       1 <0>         0.0000
     14 N2          0.5900    0.4956   -1.2652 N.am      1 <0>         0.0000
     15 N3         -0.5299   -1.7858    1.5500 N.pl3     1 <0>         0.0000
     16 O1          2.1819    1.7182   -0.1719 O.2       1 <0>         0.0000
     17 O2         -0.5410   -3.6057   -0.2019 O.2       1 <0>         0.0000
     18 O3         -0.8209   -4.1754    2.2775 O.2       1 <0>         0.0000
     19 S1         -0.2155   -3.3764    1.2104 S.o2      1 <0>         0.0000
     20 H1         -2.6735    0.1231   -2.1336 H         1 <0>         0.0000
     21 H2         -2.0430    1.2733   -0.9551 H         1 <0>         0.0000
     22 H3          1.0515    0.2344    2.6832 H         1 <0>         0.0000
     23 H4         -0.3386    0.7572    3.6473 H         1 <0>         0.0000
     24 H5         -2.7407   -0.8103    0.2262 H         1 <0>         0.0000
     25 H6         -1.7726   -1.7862   -0.8734 H         1 <0>         0.0000
     26 H7         -1.7910    0.7611    1.6825 H         1 <0>         0.0000
     27 H8         -0.2901    1.4512    1.0493 H         1 <0>         0.0000
     28 H9         -0.3880   -0.5534   -2.7808 H         1 <0>         0.0000
     29 H10        -0.5362    1.1896   -2.9118 H         1 <0>         0.0000
     30 H11         0.2915   -1.9028    3.5198 H         1 <0>         0.0000
     31 H12        -1.4082   -1.4306    3.4472 H         1 <0>         0.0000
     32 H13         1.5518   -0.4233    0.3335 H         1 <0>         0.0000
     33 H14         0.8013   -1.5304   -0.8468 H         1 <0>         0.0000
     34 H15         1.7827   -4.6467    1.2450 H         1 <0>         0.0000
     35 H16         2.0775   -2.9968    0.6078 H         1 <0>         0.0000
     36 H17         1.8807   -3.2659    2.3760 H         1 <0>         0.0000
     37 H18         0.2880    3.1668   -2.1448 H         1 <0>         0.0000
     38 H19         2.0012    3.4784   -1.8425 H         1 <0>         0.0000
@<TRIPOS>BOND
     1    1   12 1
     2    1   13 3
     3    2   12 1
     4    2   14 am
     5    2   16 2
     6    3    5 1
     7    3    7 1
     8    3   20 1
     9    3   21 1
    10    4    6 1
    11    4    8 1
    12    4   22 1
    13    4   23 1
    14    5   10 1
    15    5   24 1
    16    5   25 1
    17    6   10 1
    18    6   26 1
    19    6   27 1
    20    7   14 1
    21    7   28 1
    22    7   29 1
    23    8   15 1
    24    8   30 1
    25    8   31 1
    26    9   10 1
    27    9   14 1
    28    9   32 1
    29    9   33 1
    30   10   15 1
    31   11   19 1
    32   11   34 1
    33   11   35 1
    34   11   36 1
    35   12   37 1
    36   12   38 1
    37   15   19 1
    38   17   19 2
    39   18   19 2
