@<TRIPOS>MOLECULE
*****
   45    47     0     0     0
SMALL
NO_CHARGES

@<TRIPOS>ATOM
      1 C1          1.7730    2.0831    3.0165 C.2       1 <0>         0.0000
      2 C2         -0.3287    2.2236    3.7393 C.2       1 <0>         0.0000
      3 C3          0.4248    1.9232    2.6072 C.2       1 <0>         0.0000
      4 C4         -1.3393    1.6936    0.9359 C.2       1 <0>         0.0000
      5 C5         -1.7341   -1.1053   -1.3908 C.2       1 <0>         0.0000
      6 C6         -1.5893    1.2178   -0.4942 C.3       1 <0>         0.0000
      7 C7          1.3509   -0.9525   -1.1999 C.3       1 <0>         0.0000
      8 C8          2.4221   -1.6143   -0.3161 C.3       1 <0>         0.0000
      9 C9          0.8781    0.9381    0.3635 C.3       1 <0>         0.0000
     10 C10         0.2995   -1.4410    0.9345 C.3       1 <0>         0.0000
     11 C11         0.3215   -0.3834   -0.1945 C.3       1 <0>         0.0000
     12 C12        -3.1012   -0.7465   -1.9530 C.3       1 <0>         0.0000
     13 C13         0.2801    2.8376    6.1089 C.3       1 <0>         0.0000
     14 C14         3.0459   -1.2964    3.2035 C.3       1 <0>         0.0000
     15 N1          1.8478    2.4399    4.3034 N.2       1 <0>         0.0000
     16 N2          0.5680    2.5261    4.7185 N.pl3     1 <0>         0.0000
     17 N3         -0.0364    1.5433    1.3297 N.am      1 <0>         0.0000
     18 N4         -1.0193   -0.1121   -0.7481 N.am      1 <0>         0.0000
     19 N5          1.6752   -1.9526    0.9097 N.pl3     1 <0>         0.0000
     20 O1         -2.2316    2.1683    1.6339 O.2       1 <0>         0.0000
     21 O2         -1.2865   -2.2450   -1.5189 O.2       1 <0>         0.0000
     22 O3          3.5346   -3.4226    1.7188 O.2       1 <0>         0.0000
     23 O4          1.3194   -3.2774    3.0120 O.2       1 <0>         0.0000
     24 S1          2.3865   -2.6623    2.2201 S.o2      1 <0>         0.0000
     25 H1          2.6847    1.9794    2.4427 H         1 <0>         0.0000
     26 H2         -1.3957    2.2587    3.8865 H         1 <0>         0.0000
     27 H3         -2.6663    1.2033   -0.6193 H         1 <0>         0.0000
     28 H4         -1.1814    1.9609   -1.1948 H         1 <0>         0.0000
     29 H5          1.7707   -0.1716   -1.8410 H         1 <0>         0.0000
     30 H6          0.8664   -1.6999   -1.8238 H         1 <0>         0.0000
     31 H7          2.8419   -2.5128   -0.7712 H         1 <0>         0.0000
     32 H8          3.2527   -0.9298   -0.0968 H         1 <0>         0.0000
     33 H9          1.8198    0.7223    0.8621 H         1 <0>         0.0000
     34 H10         1.0914    1.6363   -0.4547 H         1 <0>         0.0000
     35 H11         0.0514   -0.9954    1.9015 H         1 <0>         0.0000
     36 H12        -0.4168   -2.2321    0.7138 H         1 <0>         0.0000
     37 H13        -3.0736    0.1433   -2.5889 H         1 <0>         0.0000
     38 H14        -3.8272   -0.5699   -1.1525 H         1 <0>         0.0000
     39 H15        -3.4375   -1.5993   -2.5422 H         1 <0>         0.0000
     40 H16         0.4108    1.9519    6.7379 H         1 <0>         0.0000
     41 H17         0.9619    3.6211    6.4428 H         1 <0>         0.0000
     42 H18        -0.7495    3.1905    6.1889 H         1 <0>         0.0000
     43 H19         3.5235   -1.7316    4.0835 H         1 <0>         0.0000
     44 H20         3.7838   -0.7587    2.6056 H         1 <0>         0.0000
     45 H21         2.2267   -0.6418    3.5030 H         1 <0>         0.0000
@<TRIPOS>BOND
     1    1    3 1
     2    1   15 2
     3    1   25 1
     4    2    3 2
     5    2   16 1
     6    2   26 1
     7    3   17 1
     8    4    6 1
     9    4   17 am
    10    4   20 2
    11    5   12 1
    12    5   18 am
    13    5   21 2
    14    6   18 1
    15    6   27 1
    16    6   28 1
    17    7    8 1
    18    7   11 1
    19    7   29 1
    20    7   30 1
    21    8   19 1
    22    8   31 1
    23    8   32 1
    24    9   11 1
    25    9   17 1
    26    9   33 1
    27    9   34 1
    28   10   11 1
    29   10   19 1
    30   10   35 1
    31   10   36 1
    32   11   18 1
    33   12   37 1
    34   12   38 1
    35   12   39 1
    36   13   16 1
    37   13   40 1
    38   13   41 1
    39   13   42 1
    40   14   24 1
    41   14   43 1
    42   14   44 1
    43   14   45 1
    44   15   16 1
    45   19   24 1
    46   22   24 2
    47   23   24 2
