@<TRIPOS>MOLECULE
*****
   35    37     0     0     0
SMALL
NO_CHARGES

@<TRIPOS>ATOM
      1 C1          7.4353    1.9203   -0.4551 C.1       1 <0>         0.0000
      2 C2          5.4983    4.7101   -1.9777 C.ar      1 <0>         0.0000
      3 C3          1.9975   -0.8127   -0.9269 C.ar      1 <0>         0.0000
      4 C4          1.9723    0.4929   -0.4342 C.ar      1 <0>         0.0000
      5 C5          4.5232    4.9502   -1.0069 C.ar      1 <0>         0.0000
      6 C6          6.4474    3.7060   -1.7834 C.ar      1 <0>         0.0000
      7 C7          3.0805   -1.6285   -0.6016 C.ar      1 <0>         0.0000
      8 C8          3.0197    0.9727    0.3515 C.ar      1 <0>         0.0000
      9 C9          4.4895    4.1793    0.1589 C.ar      1 <0>         0.0000
     10 C10         6.4265    2.9297   -0.6130 C.ar      1 <0>         0.0000
     11 C11         4.1477   -1.1751    0.1826 C.ar      1 <0>         0.0000
     12 C12         4.1276    0.1591    0.6515 C.ar      1 <0>         0.0000
     13 C13         5.4290    3.1701    0.3500 C.ar      1 <0>         0.0000
     14 C14         5.2602   -2.1384    0.5404 C.3       1 <0>         0.0000
     15 C15         6.5319   -1.4161    0.9731 C.3       1 <0>         0.0000
     16 C16         6.1995   -0.3303    1.9882 C.3       1 <0>         0.0000
     17 N1          8.2830    1.1245   -0.3947 N.1       1 <0>         0.0000
     18 N2          5.2543    0.6441    1.3889 N.pl3     1 <0>         0.0000
     19 O1          6.6765    2.3731    2.5523 O.2       1 <0>         0.0000
     20 O2          4.1621    2.6820    2.5989 O.2       1 <0>         0.0000
     21 S1          5.3737    2.2447    1.9030 S.o2      1 <0>         0.0000
     22 H1          5.5233    5.3045   -2.8864 H         1 <0>         0.0000
     23 H2          1.1852   -1.1924   -1.5402 H         1 <0>         0.0000
     24 H3          1.1297    1.1461   -0.6454 H         1 <0>         0.0000
     25 H4          3.7870    5.7353   -1.1531 H         1 <0>         0.0000
     26 H5          7.2132    3.5145   -2.5283 H         1 <0>         0.0000
     27 H6          3.1100   -2.6544   -0.9634 H         1 <0>         0.0000
     28 H7          2.9391    1.9682    0.7619 H         1 <0>         0.0000
     29 H8          3.7397    4.3520    0.9239 H         1 <0>         0.0000
     30 H9          4.9120   -2.7861    1.3563 H         1 <0>         0.0000
     31 H10         5.4629   -2.7970   -0.3104 H         1 <0>         0.0000
     32 H11         7.2369   -2.1169    1.4323 H         1 <0>         0.0000
     33 H12         7.0336   -0.9620    0.1161 H         1 <0>         0.0000
     34 H13         5.7436   -0.7640    2.8874 H         1 <0>         0.0000
     35 H14         7.0955    0.2115    2.2821 H         1 <0>         0.0000
@<TRIPOS>BOND
     1    1   10 1
     2    1   17 3
     3    2    5 ar
     4    2    6 ar
     5    2   22 1
     6    3    4 ar
     7    3    7 ar
     8    3   23 1
     9    4    8 ar
    10    4   24 1
    11    5    9 ar
    12    5   25 1
    13    6   10 ar
    14    6   26 1
    15    7   11 ar
    16    7   27 1
    17    8   12 ar
    18    8   28 1
    19    9   13 ar
    20    9   29 1
    21   10   13 ar
    22   11   12 ar
    23   11   14 1
    24   12   18 1
    25   13   21 1
    26   14   15 1
    27   14   30 1
    28   14   31 1
    29   15   16 1
    30   15   32 1
    31   15   33 1
    32   16   18 1
    33   16   34 1
    34   16   35 1
    35   18   21 1
    36   19   21 2
    37   20   21 2
