@<TRIPOS>MOLECULE
*****
   66    70     0     0     0
SMALL
NO_CHARGES

@<TRIPOS>ATOM
      1 C1         -4.1549   -3.1515   -3.6747 C.ar      1 <0>         0.0000
      2 C2         -6.1085   -8.3801    1.0465 C.ar      1 <0>         0.0000
      3 C3         -4.8389   -3.7075   -2.5970 C.ar      1 <0>         0.0000
      4 C4         -3.0634   -3.8128   -4.2481 C.ar      1 <0>         0.0000
      5 C5         -6.2431   -7.1889    0.3294 C.ar      1 <0>         0.0000
      6 C6         -3.3361   -5.6065   -2.5952 C.ar      1 <0>         0.0000
      7 C7         -4.8816   -9.0384    1.0877 C.ar      1 <0>         0.0000
      8 C8         -4.4482   -4.9460   -2.0429 C.ar      1 <0>         0.0000
      9 C9         -2.6848   -5.0332   -3.6875 C.ar      1 <0>         0.0000
     10 C10        -3.8052   -8.4664    0.3542 C.ar      1 <0>         0.0000
     11 C11        -5.1084   -6.6782   -0.3183 C.ar      1 <0>         0.0000
     12 C12        -3.5066  -10.9301    1.7688 C.2       1 <0>         0.0000
     13 C13        -0.4949   -8.3216    1.3993 C.3       1 <0>         0.0000
     14 C14        -0.4889   -9.0162   -1.0222 C.3       1 <0>         0.0000
     15 C15        -2.8505   -6.4046   -6.6737 C.3       1 <0>         0.0000
     16 C16        -2.9925   -8.0890   -4.9027 C.3       1 <0>         0.0000
     17 C17         0.8410   -7.6254    1.1216 C.3       1 <0>         0.0000
     18 C18         0.8392   -8.2617   -1.1434 C.3       1 <0>         0.0000
     19 C19        -3.2094   -7.5007   -7.6748 C.3       1 <0>         0.0000
     20 C20        -3.3434   -9.1165   -5.9765 C.3       1 <0>         0.0000
     21 C21        -2.6122  -10.5582    0.5901 C.3       1 <0>         0.0000
     22 C22        -1.3293   -8.4110    0.1098 C.3       1 <0>         0.0000
     23 C23        -3.0531  -11.3559   -0.6530 C.3       1 <0>         0.0000
     24 C24        -5.6134  -10.5254    2.9393 C.3       1 <0>         0.0000
     25 N1         -3.9291   -7.3081   -0.3078 N.ar      1 <0>         0.0000
     26 N2         -4.6461  -10.1677    1.9053 N.am      1 <0>         0.0000
     27 N3         -2.5966   -9.1168    0.3551 N.pl3     1 <0>         0.0000
     28 N4         -2.1729   -7.0372   -5.5286 N.pl3     1 <0>         0.0000
     29 N5         -5.2063   -5.4518   -0.9853 N.pl3     1 <0>         0.0000
     30 O1         -3.2383  -11.8799    2.5012 O.2       1 <0>         0.0000
     31 O2         -0.5907   -5.0779   -5.3058 O.2       1 <0>         0.0000
     32 O3         -0.7582   -6.8364   -3.4524 O.2       1 <0>         0.0000
     33 O4          1.5681   -8.2788    0.0870 O.3       1 <0>         0.0000
     34 O5         -4.0177   -8.5119   -7.0770 O.3       1 <0>         0.0000
     35 S1         -1.3789   -5.9831   -4.4694 S.o2      1 <0>         0.0000
     36 H1         -4.4749   -2.1921   -4.0718 H         1 <0>         0.0000
     37 H2         -6.9633   -8.7748    1.5845 H         1 <0>         0.0000
     38 H3         -5.6888   -3.1775   -2.1711 H         1 <0>         0.0000
     39 H4         -2.5100   -3.3926   -5.0805 H         1 <0>         0.0000
     40 H5         -7.1990   -6.6759    0.2819 H         1 <0>         0.0000
     41 H6         -2.9883   -6.5336   -2.1655 H         1 <0>         0.0000
     42 H7         -0.2938   -9.3251    1.7917 H         1 <0>         0.0000
     43 H8         -1.0545   -7.7715    2.1649 H         1 <0>         0.0000
     44 H9         -1.0276   -8.9506   -1.9719 H         1 <0>         0.0000
     45 H10        -0.2720  -10.0711   -0.8179 H         1 <0>         0.0000
     46 H11        -2.1675   -5.6873   -7.1321 H         1 <0>         0.0000
     47 H12        -3.7633   -5.8810   -6.3517 H         1 <0>         0.0000
     48 H13        -3.9154   -7.6701   -4.4747 H         1 <0>         0.0000
     49 H14        -2.4125   -8.5606   -4.1076 H         1 <0>         0.0000
     50 H15         0.6652   -6.5724    0.8454 H         1 <0>         0.0000
     51 H16         1.4815   -7.6419    2.0075 H         1 <0>         0.0000
     52 H17         1.4850   -8.7308   -1.8888 H         1 <0>         0.0000
     53 H18         0.6554   -7.2266   -1.4591 H         1 <0>         0.0000
     54 H19        -3.7940   -7.0816   -8.4974 H         1 <0>         0.0000
     55 H20        -2.2874   -7.9441   -8.0784 H         1 <0>         0.0000
     56 H21        -2.4254   -9.6139   -6.3226 H         1 <0>         0.0000
     57 H22        -4.0247   -9.8674   -5.5686 H         1 <0>         0.0000
     58 H23        -1.6103  -10.8714    0.8812 H         1 <0>         0.0000
     59 H24        -1.6119   -7.4000   -0.1891 H         1 <0>         0.0000
     60 H25        -4.0618  -11.0618   -0.9602 H         1 <0>         0.0000
     61 H26        -3.0518  -12.4277   -0.4342 H         1 <0>         0.0000
     62 H27        -2.3704  -11.1629   -1.4841 H         1 <0>         0.0000
     63 H28        -6.5453  -10.8926    2.4950 H         1 <0>         0.0000
     64 H29        -5.8327   -9.6560    3.5667 H         1 <0>         0.0000
     65 H30        -5.1750  -11.3163    3.5454 H         1 <0>         0.0000
     66 H31        -6.0832   -4.9715   -0.8343 H         1 <0>         0.0000
@<TRIPOS>BOND
     1    1    3 ar
     2    1    4 ar
     3    1   36 1
     4    2    5 ar
     5    2    7 ar
     6    2   37 1
     7    3    8 ar
     8    3   38 1
     9    4    9 ar
    10    4   39 1
    11    5   11 ar
    12    5   40 1
    13    6    8 ar
    14    6    9 ar
    15    6   41 1
    16    7   10 ar
    17    7   26 1
    18    8   29 1
    19    9   35 1
    20   10   25 ar
    21   10   27 1
    22   11   25 ar
    23   11   29 1
    24   12   21 1
    25   12   26 am
    26   12   30 2
    27   13   17 1
    28   13   22 1
    29   13   42 1
    30   13   43 1
    31   14   18 1
    32   14   22 1
    33   14   44 1
    34   14   45 1
    35   15   19 1
    36   15   28 1
    37   15   46 1
    38   15   47 1
    39   16   20 1
    40   16   28 1
    41   16   48 1
    42   16   49 1
    43   17   33 1
    44   17   50 1
    45   17   51 1
    46   18   33 1
    47   18   52 1
    48   18   53 1
    49   19   34 1
    50   19   54 1
    51   19   55 1
    52   20   34 1
    53   20   56 1
    54   20   57 1
    55   21   23 1
    56   21   27 1
    57   21   58 1
    58   22   27 1
    59   22   59 1
    60   23   60 1
    61   23   61 1
    62   23   62 1
    63   24   26 1
    64   24   63 1
    65   24   64 1
    66   24   65 1
    67   28   35 1
    68   29   66 1
    69   31   35 2
    70   32   35 2
