@<TRIPOS>MOLECULE
*****
   66    70     0     0     0
SMALL
NO_CHARGES

@<TRIPOS>ATOM
      1 C1         -0.8726   -3.9408   -6.3098 C.ar      1 <0>         0.0000
      2 C2         -0.5518    2.8528   -9.0055 C.ar      1 <0>         0.0000
      3 C3         -0.2903   -2.7509   -6.7416 C.ar      1 <0>         0.0000
      4 C4         -2.2466   -4.0159   -6.0713 C.ar      1 <0>         0.0000
      5 C5         -0.0871    1.5835   -8.6576 C.ar      1 <0>         0.0000
      6 C6         -2.4472   -1.6476   -6.7048 C.ar      1 <0>         0.0000
      7 C7         -1.7963    3.2879   -8.5575 C.ar      1 <0>         0.0000
      8 C8         -1.0623   -1.5891   -6.9561 C.ar      1 <0>         0.0000
      9 C9         -2.9936   -2.8547   -6.2754 C.ar      1 <0>         0.0000
     10 C10        -2.5707    2.3816   -7.7794 C.ar      1 <0>         0.0000
     11 C11        -0.8964    0.7893   -7.8311 C.ar      1 <0>         0.0000
     12 C12        -3.5650    4.9602   -8.5113 C.2       1 <0>         0.0000
     13 C13        -4.5163    3.2400   -5.0559 C.3       1 <0>         0.0000
     14 C14        -5.9030    1.6878   -6.4870 C.3       1 <0>         0.0000
     15 C15        -5.2589    2.6907   -3.8374 C.3       1 <0>         0.0000
     16 C16        -6.5810    1.2193   -5.1979 C.3       1 <0>         0.0000
     17 C17        -6.0736   -3.4362   -3.6442 C.3       1 <0>         0.0000
     18 C18        -4.4054   -2.0798   -3.3741 C.3       1 <0>         0.0000
     19 C19        -4.4930    3.7950   -8.1869 C.3       1 <0>         0.0000
     20 C20        -4.4907    2.2114   -6.1982 C.3       1 <0>         0.0000
     21 C21        -5.5953   -2.5196   -2.5101 C.3       1 <0>         0.0000
     22 C22        -5.0735    3.2259   -9.4961 C.3       1 <0>         0.0000
     23 C23        -1.3180    5.6449   -9.1844 C.3       1 <0>         0.0000
     24 C24        -7.3783    1.8840   -3.0177 C.3       1 <0>         0.0000
     25 N1         -2.1043    1.1787   -7.4105 N.ar      1 <0>         0.0000
     26 N2         -2.2546    4.6115   -8.7518 N.am      1 <0>         0.0000
     27 N3         -3.8227    2.7757   -7.3812 N.pl3     1 <0>         0.0000
     28 N4         -6.6162    2.2859   -4.1950 N.3       1 <0>         0.0000
     29 N5         -4.7381   -3.2133   -4.2958 N.pl3     1 <0>         0.0000
     30 N6         -0.4006   -0.4530   -7.4186 N.pl3     1 <0>         0.0000
     31 O1         -3.9850    6.1122   -8.5985 O.2       1 <0>         0.0000
     32 O2         -5.3224   -1.5874   -6.2575 O.2       1 <0>         0.0000
     33 O3         -5.3628   -4.1079   -6.5609 O.2       1 <0>         0.0000
     34 F1         -5.2355   -3.1872   -1.3727 F         1 <0>         0.0000
     35 F2         -6.4608   -1.5327   -2.1376 F         1 <0>         0.0000
     36 S1         -4.7542   -2.9146   -5.9705 S.o2      1 <0>         0.0000
     37 H1         -0.2487   -4.8177   -6.1617 H         1 <0>         0.0000
     38 H2          0.0736    3.5007   -9.6097 H         1 <0>         0.0000
     39 H3          0.7823   -2.7175   -6.9240 H         1 <0>         0.0000
     40 H4         -2.7211   -4.9325   -5.7389 H         1 <0>         0.0000
     41 H5          0.8764    1.2296   -9.0121 H         1 <0>         0.0000
     42 H6         -3.0689   -0.7767   -6.8514 H         1 <0>         0.0000
     43 H7         -5.0190    4.1555   -5.3866 H         1 <0>         0.0000
     44 H8         -3.4890    3.5061   -4.7830 H         1 <0>         0.0000
     45 H9         -5.8543    0.8552   -7.1942 H         1 <0>         0.0000
     46 H10        -6.5192    2.4797   -6.9261 H         1 <0>         0.0000
     47 H11        -4.6878    1.8402   -3.4068 H         1 <0>         0.0000
     48 H12        -5.3144    3.4608   -3.0604 H         1 <0>         0.0000
     49 H13        -7.6083    0.9125   -5.4197 H         1 <0>         0.0000
     50 H14        -6.0589    0.3237   -4.8160 H         1 <0>         0.0000
     51 H15        -6.2605   -4.4787   -3.3873 H         1 <0>         0.0000
     52 H16        -6.9173   -3.0028   -4.1888 H         1 <0>         0.0000
     53 H17        -4.5656   -1.0910   -3.8134 H         1 <0>         0.0000
     54 H18        -3.4169   -2.1638   -2.9204 H         1 <0>         0.0000
     55 H19        -5.2976    4.2280   -7.5944 H         1 <0>         0.0000
     56 H20        -3.8753    1.3650   -5.8883 H         1 <0>         0.0000
     57 H21        -4.2799    2.7925  -10.1127 H         1 <0>         0.0000
     58 H22        -5.5666    4.0192  -10.0655 H         1 <0>         0.0000
     59 H23        -5.8011    2.4416   -9.2754 H         1 <0>         0.0000
     60 H24        -1.0060    5.4830  -10.2222 H         1 <0>         0.0000
     61 H25        -0.4338    5.6458   -8.5395 H         1 <0>         0.0000
     62 H26        -1.8271    6.6047   -9.1143 H         1 <0>         0.0000
     63 H27        -7.4301    2.7178   -2.3099 H         1 <0>         0.0000
     64 H28        -6.9419    1.0131   -2.4958 H         1 <0>         0.0000
     65 H29        -8.4008    1.6258   -3.3114 H         1 <0>         0.0000
     66 H30         0.5569   -0.6186   -7.6986 H         1 <0>         0.0000
@<TRIPOS>BOND
     1    1    3 ar
     2    1    4 ar
     3    1   37 1
     4    2    5 ar
     5    2    7 ar
     6    2   38 1
     7    3    8 ar
     8    3   39 1
     9    4    9 ar
    10    4   40 1
    11    5   11 ar
    12    5   41 1
    13    6    8 ar
    14    6    9 ar
    15    6   42 1
    16    7   10 ar
    17    7   26 1
    18    8   30 1
    19    9   36 1
    20   10   25 ar
    21   10   27 1
    22   11   25 ar
    23   11   30 1
    24   12   19 1
    25   12   26 am
    26   12   31 2
    27   13   15 1
    28   13   20 1
    29   13   43 1
    30   13   44 1
    31   14   16 1
    32   14   20 1
    33   14   45 1
    34   14   46 1
    35   15   28 1
    36   15   47 1
    37   15   48 1
    38   16   28 1
    39   16   49 1
    40   16   50 1
    41   17   21 1
    42   17   29 1
    43   17   51 1
    44   17   52 1
    45   18   21 1
    46   18   29 1
    47   18   53 1
    48   18   54 1
    49   19   22 1
    50   19   27 1
    51   19   55 1
    52   20   27 1
    53   20   56 1
    54   21   34 1
    55   21   35 1
    56   22   57 1
    57   22   58 1
    58   22   59 1
    59   23   26 1
    60   23   60 1
    61   23   61 1
    62   23   62 1
    63   24   28 1
    64   24   63 1
    65   24   64 1
    66   24   65 1
    67   29   36 1
    68   30   66 1
    69   32   36 2
    70   33   36 2
