@<TRIPOS>MOLECULE
*****
   40    42     0     0     0
SMALL
NO_CHARGES

@<TRIPOS>ATOM
      1 C1          5.4292    0.1111   -0.0344 C.ar      1 <0>         0.0000
      2 C2          6.0154   -1.0952   -0.4536 C.ar      1 <0>         0.0000
      3 C3          4.0523    0.2158    0.0670 C.ar      1 <0>         0.0000
      4 C4          5.1454   -2.1407   -0.7410 C.ar      1 <0>         0.0000
      5 C5          3.2558   -0.9153   -0.2685 C.ar      1 <0>         0.0000
      6 C6         -1.3706    0.6542    0.5314 C.2       1 <0>         0.0000
      7 C7         -0.5507    1.7207   -2.1371 C.3       1 <0>         0.0000
      8 C8         -0.5743    0.2169   -1.8083 C.3       1 <0>         0.0000
      9 C9         -0.3353   -1.5971   -0.0450 C.3       1 <0>         0.0000
     10 C10        -0.9193    2.5970   -0.9222 C.3       1 <0>         0.0000
     11 C11         1.0651   -2.0698   -0.4501 C.3       1 <0>         0.0000
     12 C12         1.1149    0.3029    0.1115 C.3       1 <0>         0.0000
     13 C13        -0.3245   -0.0803   -0.3182 C.3       1 <0>         0.0000
     14 C14        -2.6485    2.7032    0.8687 C.3       1 <0>         0.0000
     15 C15         5.6704   -3.4937   -1.1879 C.3       1 <0>         0.0000
     16 N1          3.8146   -2.0767   -0.6604 N.ar      1 <0>         0.0000
     17 N2          1.8957   -0.8843   -0.2095 N.pl3     1 <0>         0.0000
     18 N3         -1.7413    1.8910    0.0644 N.am      1 <0>         0.0000
     19 O1         -1.8588    0.1537    1.5458 O.2       1 <0>         0.0000
     20 F1          7.0254   -3.5039   -1.2778 F         1 <0>         0.0000
     21 F2          5.3219   -4.4758   -0.3238 F         1 <0>         0.0000
     22 F3          5.1891   -3.8418   -2.4042 F         1 <0>         0.0000
     23 H1          6.0554    0.9625    0.2191 H         1 <0>         0.0000
     24 H2          7.0884   -1.2118   -0.5419 H         1 <0>         0.0000
     25 H3          3.5944    1.1358    0.4124 H         1 <0>         0.0000
     26 H4          0.4391    2.0241   -2.4919 H         1 <0>         0.0000
     27 H5         -1.2465    1.9164   -2.9579 H         1 <0>         0.0000
     28 H6         -1.5552   -0.1976   -2.0625 H         1 <0>         0.0000
     29 H7          0.1586   -0.3146   -2.4236 H         1 <0>         0.0000
     30 H8         -1.1265   -2.1084   -0.5992 H         1 <0>         0.0000
     31 H9         -0.5108   -1.7628    1.0196 H         1 <0>         0.0000
     32 H10        -0.0116    2.9825   -0.4365 H         1 <0>         0.0000
     33 H11        -1.4836    3.4736   -1.2504 H         1 <0>         0.0000
     34 H12         1.4195   -2.9147    0.1459 H         1 <0>         0.0000
     35 H13         1.1261   -2.3709   -1.5027 H         1 <0>         0.0000
     36 H14         1.4927    1.1742   -0.4328 H         1 <0>         0.0000
     37 H15         1.1524    0.5323    1.1866 H         1 <0>         0.0000
     38 H16        -2.0971    3.4146    1.4984 H         1 <0>         0.0000
     39 H17        -3.2311    2.0475    1.5138 H         1 <0>         0.0000
     40 H18        -3.3183    3.2639    0.2092 H         1 <0>         0.0000
@<TRIPOS>BOND
     1    1    2 ar
     2    1    3 ar
     3    1   23 1
     4    2    4 ar
     5    2   24 1
     6    3    5 ar
     7    3   25 1
     8    4   15 1
     9    4   16 ar
    10    5   16 ar
    11    5   17 1
    12    6   13 1
    13    6   18 am
    14    6   19 2
    15    7    8 1
    16    7   10 1
    17    7   26 1
    18    7   27 1
    19    8   13 1
    20    8   28 1
    21    8   29 1
    22    9   11 1
    23    9   13 1
    24    9   30 1
    25    9   31 1
    26   10   18 1
    27   10   32 1
    28   10   33 1
    29   11   17 1
    30   11   34 1
    31   11   35 1
    32   12   13 1
    33   12   17 1
    34   12   36 1
    35   12   37 1
    36   14   18 1
    37   14   38 1
    38   14   39 1
    39   14   40 1
    40   15   20 1
    41   15   21 1
    42   15   22 1
