@<TRIPOS>MOLECULE
*****
   40    42     0     0     0
SMALL
NO_CHARGES

@<TRIPOS>ATOM
      1 C1          4.9307   -2.6149   -1.0677 C.ar      1 <0>         0.0000
      2 C2          5.6857   -1.4600   -0.7986 C.ar      1 <0>         0.0000
      3 C3          3.5660   -2.6229   -0.8358 C.ar      1 <0>         0.0000
      4 C4          4.9887   -0.3661   -0.2999 C.ar      1 <0>         0.0000
      5 C5          2.9554   -1.4447   -0.3208 C.ar      1 <0>         0.0000
      6 C6         -1.4487    0.3475    1.0319 C.2       1 <0>         0.0000
      7 C7         -0.6946    1.5439   -1.5996 C.3       1 <0>         0.0000
      8 C8         -0.8420    0.0273   -1.3800 C.3       1 <0>         0.0000
      9 C9         -0.6495   -1.9273    0.2370 C.3       1 <0>         0.0000
     10 C10        -0.9020    2.3513   -0.3012 C.3       1 <0>         0.0000
     11 C11         0.6833   -2.4844   -0.2833 C.3       1 <0>         0.0000
     12 C12         0.9651   -0.1677    0.4156 C.3       1 <0>         0.0000
     13 C13        -0.5237   -0.4014    0.0641 C.3       1 <0>         0.0000
     14 C14        -2.4995    2.4701    1.6084 C.3       1 <0>         0.0000
     15 C15         5.7002    0.9354    0.0236 C.3       1 <0>         0.0000
     16 N1          3.6759   -0.3370   -0.0586 N.ar      1 <0>         0.0000
     17 N2          1.6177   -1.3803   -0.0758 N.pl3     1 <0>         0.0000
     18 N3         -1.7249    1.6459    0.6866 N.am      1 <0>         0.0000
     19 O1         -1.9267   -0.1931    2.0316 O.2       1 <0>         0.0000
     20 F1          7.0284    0.8665   -0.2477 F         1 <0>         0.0000
     21 F2          5.2012    1.9699   -0.6959 F         1 <0>         0.0000
     22 F3          5.5773    1.2642    1.3307 F         1 <0>         0.0000
     23 H1          5.4165   -3.5044   -1.4602 H         1 <0>         0.0000
     24 H2          6.7545   -1.4205   -0.9684 H         1 <0>         0.0000
     25 H3          2.9753   -3.5075   -1.0448 H         1 <0>         0.0000
     26 H4          0.2975    1.7814   -1.9947 H         1 <0>         0.0000
     27 H5         -1.4166    1.8667   -2.3553 H         1 <0>         0.0000
     28 H6         -1.8720   -0.2771   -1.5944 H         1 <0>         0.0000
     29 H7         -0.2016   -0.5169   -2.0821 H         1 <0>         0.0000
     30 H8         -1.5094   -2.3370   -0.2991 H         1 <0>         0.0000
     31 H9         -0.7776   -2.1521    1.2972 H         1 <0>         0.0000
     32 H10         0.0662    2.6133    0.1465 H         1 <0>         0.0000
     33 H11        -1.4014    3.2973   -0.5250 H         1 <0>         0.0000
     34 H12         0.9924   -3.3794    0.2701 H         1 <0>         0.0000
     35 H13         0.6314   -2.7535   -1.3479 H         1 <0>         0.0000
     36 H14         1.4025    0.7094   -0.0617 H         1 <0>         0.0000
     37 H15         1.1039   -0.0591    1.4994 H         1 <0>         0.0000
     38 H16        -1.8445    3.0770    2.2481 H         1 <0>         0.0000
     39 H17        -3.1007    1.8205    2.2427 H         1 <0>         0.0000
     40 H18        -3.1525    3.1392    1.0392 H         1 <0>         0.0000
@<TRIPOS>BOND
     1    1    2 ar
     2    1    3 ar
     3    1   23 1
     4    2    4 ar
     5    2   24 1
     6    3    5 ar
     7    3   25 1
     8    4   15 1
     9    4   16 ar
    10    5   16 ar
    11    5   17 1
    12    6   13 1
    13    6   18 am
    14    6   19 2
    15    7    8 1
    16    7   10 1
    17    7   26 1
    18    7   27 1
    19    8   13 1
    20    8   28 1
    21    8   29 1
    22    9   11 1
    23    9   13 1
    24    9   30 1
    25    9   31 1
    26   10   18 1
    27   10   32 1
    28   10   33 1
    29   11   17 1
    30   11   34 1
    31   11   35 1
    32   12   13 1
    33   12   17 1
    34   12   36 1
    35   12   37 1
    36   14   18 1
    37   14   38 1
    38   14   39 1
    39   14   40 1
    40   15   20 1
    41   15   21 1
    42   15   22 1
