@<TRIPOS>MOLECULE
*****
   40    42     0     0     0
SMALL
NO_CHARGES

@<TRIPOS>ATOM
      1 C1          5.0293   -0.5464   -0.2492 C.ar      1 <0>         0.0000
      2 C2          5.5876   -1.0830    0.9232 C.ar      1 <0>         0.0000
      3 C3          3.6579   -0.5671   -0.4381 C.ar      1 <0>         0.0000
      4 C4          4.6954   -1.6195    1.8449 C.ar      1 <0>         0.0000
      5 C5          2.8369   -1.1338    0.5780 C.ar      1 <0>         0.0000
      6 C6         -1.0923    0.7217    0.4648 C.2       1 <0>         0.0000
      7 C7         -1.7422    0.2434   -2.3382 C.3       1 <0>         0.0000
      8 C8         -1.6729   -0.9410   -1.3789 C.3       1 <0>         0.0000
      9 C9         -0.7602   -1.7524    0.8647 C.3       1 <0>         0.0000
     10 C10        -2.3091    1.4566   -1.6130 C.3       1 <0>         0.0000
     11 C11         0.6217   -1.7294    1.5206 C.3       1 <0>         0.0000
     12 C12         0.7451   -0.5658   -0.6253 C.3       1 <0>         0.0000
     13 C13        -0.7506   -0.6272   -0.1954 C.3       1 <0>         0.0000
     14 C14        -1.9952    2.9777    0.3021 C.3       1 <0>         0.0000
     15 C15         5.1889   -2.2377    3.1413 C.3       1 <0>         0.0000
     16 N1          3.3695   -1.6529    1.7013 N.ar      1 <0>         0.0000
     17 N2          1.4819   -1.1927    0.4596 N.pl3     1 <0>         0.0000
     18 N3         -1.6692    1.6954   -0.3163 N.am      1 <0>         0.0000
     19 O1         -0.7808    0.9340    1.6390 O.2       1 <0>         0.0000
     20 F1          6.5412   -2.1646    3.2521 F         1 <0>         0.0000
     21 F2          4.6677   -1.6190    4.2251 F         1 <0>         0.0000
     22 F3          4.8552   -3.5478    3.2292 F         1 <0>         0.0000
     23 H1          5.6730   -0.1168   -1.0125 H         1 <0>         0.0000
     24 H2          6.6556   -1.0834    1.1028 H         1 <0>         0.0000
     25 H3          3.2222   -0.1654   -1.3459 H         1 <0>         0.0000
     26 H4         -0.7430    0.4734   -2.7260 H         1 <0>         0.0000
     27 H5         -2.3779    0.0177   -3.2006 H         1 <0>         0.0000
     28 H6         -2.6795   -1.1679   -1.0037 H         1 <0>         0.0000
     29 H7         -1.3145   -1.8423   -1.8888 H         1 <0>         0.0000
     30 H8         -0.9167   -2.7081    0.3520 H         1 <0>         0.0000
     31 H9         -1.5605   -1.6187    1.5947 H         1 <0>         0.0000
     32 H10        -2.1821    2.3590   -2.2217 H         1 <0>         0.0000
     33 H11        -3.3922    1.3261   -1.4612 H         1 <0>         0.0000
     34 H12         0.6433   -1.0738    2.3946 H         1 <0>         0.0000
     35 H13         0.9682   -2.7208    1.8217 H         1 <0>         0.0000
     36 H14         0.8895   -1.1118   -1.5702 H         1 <0>         0.0000
     37 H15         1.0790    0.4660   -0.7883 H         1 <0>         0.0000
     38 H16        -1.7397    3.7907   -0.3858 H         1 <0>         0.0000
     39 H17        -1.4279    3.0832    1.2248 H         1 <0>         0.0000
     40 H18        -3.0666    3.0409    0.5353 H         1 <0>         0.0000
@<TRIPOS>BOND
     1    1    2 ar
     2    1    3 ar
     3    1   23 1
     4    2    4 ar
     5    2   24 1
     6    3    5 ar
     7    3   25 1
     8    4   15 1
     9    4   16 ar
    10    5   16 ar
    11    5   17 1
    12    6   13 1
    13    6   18 am
    14    6   19 2
    15    7    8 1
    16    7   10 1
    17    7   26 1
    18    7   27 1
    19    8   13 1
    20    8   28 1
    21    8   29 1
    22    9   11 1
    23    9   13 1
    24    9   30 1
    25    9   31 1
    26   10   18 1
    27   10   32 1
    28   10   33 1
    29   11   17 1
    30   11   34 1
    31   11   35 1
    32   12   13 1
    33   12   17 1
    34   12   36 1
    35   12   37 1
    36   14   18 1
    37   14   38 1
    38   14   39 1
    39   14   40 1
    40   15   20 1
    41   15   21 1
    42   15   22 1
