@<TRIPOS>MOLECULE
*****
   40    42     0     0     0
SMALL
NO_CHARGES

@<TRIPOS>ATOM
      1 C1          4.6459   -2.8147   -1.0786 C.ar      1 <0>         0.0000
      2 C2          5.3654   -1.6343   -1.3339 C.ar      1 <0>         0.0000
      3 C3          3.3557   -2.7488   -0.5812 C.ar      1 <0>         0.0000
      4 C4          4.7118   -0.4388   -1.0598 C.ar      1 <0>         0.0000
      5 C5          2.7848   -1.4682   -0.3352 C.ar      1 <0>         0.0000
      6 C6         -1.3847    0.6591    1.2542 C.2       1 <0>         0.0000
      7 C7         -1.2064    0.9802   -1.7108 C.3       1 <0>         0.0000
      8 C8         -1.2224   -0.3932   -1.0156 C.3       1 <0>         0.0000
      9 C9         -0.6137   -1.7512    1.0478 C.3       1 <0>         0.0000
     10 C10        -1.2176    2.1510   -0.7057 C.3       1 <0>         0.0000
     11 C11         0.6298   -2.4428    0.4712 C.3       1 <0>         0.0000
     12 C12         0.8974   -0.0239    0.3626 C.3       1 <0>         0.0000
     13 C13        -0.6141   -0.3540    0.3982 C.3       1 <0>         0.0000
     14 C14        -2.4308    2.8590    1.3524 C.3       1 <0>         0.0000
     15 C15         5.3906    0.8979   -1.2992 C.3       1 <0>         0.0000
     16 N1          3.4721   -0.3347   -0.5755 N.ar      1 <0>         0.0000
     17 N2          1.5193   -1.3296    0.1477 N.pl3     1 <0>         0.0000
     18 N3         -1.7960    1.7877    0.5920 N.am      1 <0>         0.0000
     19 O1         -1.6354    0.4549    2.4439 O.2       1 <0>         0.0000
     20 F1          6.6403    0.7466   -1.8069 F         1 <0>         0.0000
     21 F2          4.6952    1.6615   -2.1767 F         1 <0>         0.0000
     22 F3          5.5090    1.6133   -0.1564 F         1 <0>         0.0000
     23 H1          5.1005   -3.7827   -1.2729 H         1 <0>         0.0000
     24 H2          6.3760   -1.6506   -1.7226 H         1 <0>         0.0000
     25 H3          2.7923   -3.6539   -0.3854 H         1 <0>         0.0000
     26 H4         -0.3195    1.0813   -2.3431 H         1 <0>         0.0000
     27 H5         -2.0726    1.0540   -2.3747 H         1 <0>         0.0000
     28 H6         -2.2549   -0.7454   -0.9201 H         1 <0>         0.0000
     29 H7         -0.6951   -1.1304   -1.6303 H         1 <0>         0.0000
     30 H8         -1.5321   -2.3062    0.8398 H         1 <0>         0.0000
     31 H9         -0.5291   -1.6367    2.1298 H         1 <0>         0.0000
     32 H10        -0.2012    2.5406   -0.5591 H         1 <0>         0.0000
     33 H11        -1.8081    2.9799   -1.1043 H         1 <0>         0.0000
     34 H12         1.0891   -3.1236    1.1980 H         1 <0>         0.0000
     35 H13         0.3966   -3.0274   -0.4302 H         1 <0>         0.0000
     36 H14         1.1847    0.6605   -0.4359 H         1 <0>         0.0000
     37 H15         1.2289    0.4168    1.3120 H         1 <0>         0.0000
     38 H16        -1.7059    3.6375    1.6259 H         1 <0>         0.0000
     39 H17        -2.8542    2.4412    2.2645 H         1 <0>         0.0000
     40 H18        -3.2241    3.3139    0.7507 H         1 <0>         0.0000
@<TRIPOS>BOND
     1    1    2 ar
     2    1    3 ar
     3    1   23 1
     4    2    4 ar
     5    2   24 1
     6    3    5 ar
     7    3   25 1
     8    4   15 1
     9    4   16 ar
    10    5   16 ar
    11    5   17 1
    12    6   13 1
    13    6   18 am
    14    6   19 2
    15    7    8 1
    16    7   10 1
    17    7   26 1
    18    7   27 1
    19    8   13 1
    20    8   28 1
    21    8   29 1
    22    9   11 1
    23    9   13 1
    24    9   30 1
    25    9   31 1
    26   10   18 1
    27   10   32 1
    28   10   33 1
    29   11   17 1
    30   11   34 1
    31   11   35 1
    32   12   13 1
    33   12   17 1
    34   12   36 1
    35   12   37 1
    36   14   18 1
    37   14   38 1
    38   14   39 1
    39   14   40 1
    40   15   20 1
    41   15   21 1
    42   15   22 1
