@<TRIPOS>MOLECULE
*****
   51    54     0     0     0
SMALL
NO_CHARGES

@<TRIPOS>ATOM
      1 C1         -3.5034    3.0308   -2.4337 C.1       1 <0>         0.0000
      2 C2         -1.9936    4.4799   -3.6408 C.ar      1 <0>         0.0000
      3 C3         -2.1756    3.3072   -2.8866 C.ar      1 <0>         0.0000
      4 C4         -0.7448    4.8588   -4.1150 C.ar      1 <0>         0.0000
      5 C5          0.3312    3.9991   -3.7949 C.ar      1 <0>         0.0000
      6 C6         -1.0265    2.4977   -2.6241 C.ar      1 <0>         0.0000
      7 C7         -0.0727    0.2400    0.9047 C.2       1 <0>         0.0000
      8 C8          0.4415   -2.5949    0.5204 C.3       1 <0>         0.0000
      9 C9         -2.1881    0.4713    3.8415 C.3       1 <0>         0.0000
     10 C10        -1.4160    0.6866    5.1269 C.3       1 <0>         0.0000
     11 C11         0.7148   -1.6372   -0.6354 C.3       1 <0>         0.0000
     12 C12        -1.6488   -0.6382   -0.8055 C.3       1 <0>         0.0000
     13 C13         0.8140   -1.9277    1.8384 C.3       1 <0>         0.0000
     14 C14        -2.1912    0.7127   -1.2751 C.3       1 <0>         0.0000
     15 C15         0.2282    0.6861   -1.5517 C.3       1 <0>         0.0000
     16 C16        -0.9163   -0.3061    4.0989 C.3       1 <0>         0.0000
     17 C17        -0.1473   -0.3780   -0.5008 C.3       1 <0>         0.0000
     18 C18        -0.5469    6.1196   -4.9207 C.3       1 <0>         0.0000
     19 C19         1.7322    4.3215   -4.2520 C.3       1 <0>         0.0000
     20 C20         0.3264    0.0242    3.2985 C.3       1 <0>         0.0000
     21 N1         -4.6124    2.8715   -2.1041 N.1       1 <0>         0.0000
     22 N2          0.1866    2.8773   -3.0892 N.ar      1 <0>         0.0000
     23 N3         -1.0355    1.3273   -1.9323 N.pl3     1 <0>         0.0000
     24 N4          0.3066   -0.5577    1.9496 N.am      1 <0>         0.0000
     25 O1         -0.4094    1.4179    1.0762 O.2       1 <0>         0.0000
     26 H1         -2.8647    5.0980   -3.8425 H         1 <0>         0.0000
     27 H2         -0.6167   -2.8780    0.5296 H         1 <0>         0.0000
     28 H3          1.0218   -3.5175    0.4158 H         1 <0>         0.0000
     29 H4         -3.1327   -0.0622    3.8993 H         1 <0>         0.0000
     30 H5         -2.1450    1.2496    3.0867 H         1 <0>         0.0000
     31 H6         -0.8685    1.6190    5.2359 H         1 <0>         0.0000
     32 H7         -1.8331    0.3003    6.0523 H         1 <0>         0.0000
     33 H8          1.7774   -1.3590   -0.6363 H         1 <0>         0.0000
     34 H9          0.5115   -2.1150   -1.6004 H         1 <0>         0.0000
     35 H10        -2.2060   -1.0211    0.0527 H         1 <0>         0.0000
     36 H11        -1.7202   -1.3746   -1.6140 H         1 <0>         0.0000
     37 H12         0.4184   -2.5073    2.6796 H         1 <0>         0.0000
     38 H13         1.9090   -1.9113    1.9496 H         1 <0>         0.0000
     39 H14        -3.0240    0.5905   -1.9694 H         1 <0>         0.0000
     40 H15        -2.5249    1.3214   -0.4295 H         1 <0>         0.0000
     41 H16         0.9296    1.4245   -1.1607 H         1 <0>         0.0000
     42 H17         0.6929    0.2152   -2.4264 H         1 <0>         0.0000
     43 H18        -1.0371   -1.3574    4.3546 H         1 <0>         0.0000
     44 H19         0.1435    6.8133   -4.4267 H         1 <0>         0.0000
     45 H20        -0.1319    5.9074   -5.9131 H         1 <0>         0.0000
     46 H21        -1.4961    6.6434   -5.0639 H         1 <0>         0.0000
     47 H22         2.0612    5.2911   -3.8604 H         1 <0>         0.0000
     48 H23         2.4206    3.5484   -3.9081 H         1 <0>         0.0000
     49 H24         1.7860    4.3862   -5.3451 H         1 <0>         0.0000
     50 H25         1.2221   -0.3469    3.8118 H         1 <0>         0.0000
     51 H26         0.4226    1.1051    3.1896 H         1 <0>         0.0000
@<TRIPOS>BOND
     1    1    3 1
     2    1   21 3
     3    2    3 ar
     4    2    4 ar
     5    2   26 1
     6    3    6 ar
     7    4    5 ar
     8    4   18 1
     9    5   19 1
    10    5   22 ar
    11    6   22 ar
    12    6   23 1
    13    7   17 1
    14    7   24 am
    15    7   25 2
    16    8   11 1
    17    8   13 1
    18    8   27 1
    19    8   28 1
    20    9   10 1
    21    9   16 1
    22    9   29 1
    23    9   30 1
    24   10   16 1
    25   10   31 1
    26   10   32 1
    27   11   17 1
    28   11   33 1
    29   11   34 1
    30   12   14 1
    31   12   17 1
    32   12   35 1
    33   12   36 1
    34   13   24 1
    35   13   37 1
    36   13   38 1
    37   14   23 1
    38   14   39 1
    39   14   40 1
    40   15   17 1
    41   15   23 1
    42   15   41 1
    43   15   42 1
    44   16   20 1
    45   16   43 1
    46   18   44 1
    47   18   45 1
    48   18   46 1
    49   19   47 1
    50   19   48 1
    51   19   49 1
    52   20   24 1
    53   20   50 1
    54   20   51 1
