@<TRIPOS>MOLECULE
*****
   51    54     0     0     0
SMALL
NO_CHARGES

@<TRIPOS>ATOM
      1 C1          2.9897    0.9436    3.2325 C.1       1 <0>         0.0000
      2 C2          2.5154    0.3769    5.5397 C.ar      1 <0>         0.0000
      3 C3          2.2159    0.2001    4.1771 C.ar      1 <0>         0.0000
      4 C4          1.8688   -0.3516    6.5292 C.ar      1 <0>         0.0000
      5 C5          0.9061   -1.2897    6.0878 C.ar      1 <0>         0.0000
      6 C6          1.1971   -0.7432    3.8349 C.ar      1 <0>         0.0000
      7 C7          0.4354   -0.4781   -1.0780 C.2       1 <0>         0.0000
      8 C8         -0.9811    1.8288    0.1252 C.3       1 <0>         0.0000
      9 C9          0.1675    1.9889   -5.2436 C.3       1 <0>         0.0000
     10 C10        -0.5766    2.7556   -4.1690 C.3       1 <0>         0.0000
     11 C11        -1.2609    0.3713    0.5562 C.3       1 <0>         0.0000
     12 C12        -0.3773   -2.0077    0.7785 C.3       1 <0>         0.0000
     13 C13         0.2786    1.9616   -0.7506 C.3       1 <0>         0.0000
     14 C14        -0.2524   -2.0235    2.3031 C.3       1 <0>         0.0000
     15 C15         1.0866   -0.2068    1.3774 C.3       1 <0>         0.0000
     16 C16        -0.1513    1.3211   -3.9267 C.3       1 <0>         0.0000
     17 C17        -0.0441   -0.5600    0.3789 C.3       1 <0>         0.0000
     18 C18         2.1889   -0.1665    7.9924 C.3       1 <0>         0.0000
     19 C19         0.1701   -2.1572    7.0779 C.3       1 <0>         0.0000
     20 C20         0.9718    0.9829   -2.9679 C.3       1 <0>         0.0000
     21 N1          3.6575    1.5697    2.5070 N.1       1 <0>         0.0000
     22 N2          0.5902   -1.4652    4.8037 N.ar      1 <0>         0.0000
     23 N3          0.7696   -0.9987    2.5683 N.pl3     1 <0>         0.0000
     24 N4          0.5001    0.7854   -1.5951 N.am      1 <0>         0.0000
     25 O1          0.7129   -1.4860   -1.7339 O.2       1 <0>         0.0000
     26 H1          3.2853    1.0966    5.8061 H         1 <0>         0.0000
     27 H2         -1.8440    2.2087   -0.4293 H         1 <0>         0.0000
     28 H3         -0.8583    2.4782    0.9977 H         1 <0>         0.0000
     29 H4         -0.3799    1.6713   -6.1258 H         1 <0>         0.0000
     30 H5          1.2014    2.2653   -5.4336 H         1 <0>         0.0000
     31 H6         -0.0344    3.5468   -3.6577 H         1 <0>         0.0000
     32 H7         -1.6320    2.9627   -4.3206 H         1 <0>         0.0000
     33 H8         -1.5990    0.3394    1.5971 H         1 <0>         0.0000
     34 H9         -2.0769   -0.0386   -0.0479 H         1 <0>         0.0000
     35 H10         0.3510   -2.6774    0.3172 H         1 <0>         0.0000
     36 H11        -1.3704   -2.3125    0.4389 H         1 <0>         0.0000
     37 H12         0.1761    2.8254   -1.4079 H         1 <0>         0.0000
     38 H13         1.1661    2.1434   -0.1315 H         1 <0>         0.0000
     39 H14        -1.1897   -1.7625    2.8079 H         1 <0>         0.0000
     40 H15         0.0646   -2.9920    2.6970 H         1 <0>         0.0000
     41 H16         2.0685   -0.4736    0.9700 H         1 <0>         0.0000
     42 H17         1.1041    0.8547    1.6218 H         1 <0>         0.0000
     43 H18        -0.9429    0.5757   -3.9464 H         1 <0>         0.0000
     44 H19         1.3096    0.1553    8.5626 H         1 <0>         0.0000
     45 H20         2.5452   -1.0962    8.4511 H         1 <0>         0.0000
     46 H21         2.9669    0.5895    8.1287 H         1 <0>         0.0000
     47 H22        -0.3830   -1.5479    7.8020 H         1 <0>         0.0000
     48 H23        -0.5304   -2.8069    6.5519 H         1 <0>         0.0000
     49 H24         0.8679   -2.7770    7.6529 H         1 <0>         0.0000
     50 H25         1.7272    1.7788   -2.9700 H         1 <0>         0.0000
     51 H26         1.4581    0.0560   -3.2759 H         1 <0>         0.0000
@<TRIPOS>BOND
     1    1    3 1
     2    1   21 3
     3    2    3 ar
     4    2    4 ar
     5    2   26 1
     6    3    6 ar
     7    4    5 ar
     8    4   18 1
     9    5   19 1
    10    5   22 ar
    11    6   22 ar
    12    6   23 1
    13    7   17 1
    14    7   24 am
    15    7   25 2
    16    8   11 1
    17    8   13 1
    18    8   27 1
    19    8   28 1
    20    9   10 1
    21    9   16 1
    22    9   29 1
    23    9   30 1
    24   10   16 1
    25   10   31 1
    26   10   32 1
    27   11   17 1
    28   11   33 1
    29   11   34 1
    30   12   14 1
    31   12   17 1
    32   12   35 1
    33   12   36 1
    34   13   24 1
    35   13   37 1
    36   13   38 1
    37   14   23 1
    38   14   39 1
    39   14   40 1
    40   15   17 1
    41   15   23 1
    42   15   41 1
    43   15   42 1
    44   16   20 1
    45   16   43 1
    46   18   44 1
    47   18   45 1
    48   18   46 1
    49   19   47 1
    50   19   48 1
    51   19   49 1
    52   20   24 1
    53   20   50 1
    54   20   51 1
