@<TRIPOS>MOLECULE
*****
   40    42     0     0     0
SMALL
NO_CHARGES

@<TRIPOS>ATOM
      1 C1          0.8737   -5.9006    0.2232 C.ar      1 <0>         0.0000
      2 C2          1.5512   -6.3256    1.3795 C.ar      1 <0>         0.0000
      3 C3          0.6819   -4.5505   -0.0132 C.ar      1 <0>         0.0000
      4 C4          2.0041   -5.3283    2.2348 C.ar      1 <0>         0.0000
      5 C5          1.1781   -3.6154    0.9387 C.ar      1 <0>         0.0000
      6 C6          0.0325    0.7589   -1.0607 C.2       1 <0>         0.0000
      7 C7         -1.3415    1.3981    1.5173 C.3       1 <0>         0.0000
      8 C8         -1.1630   -0.0334    0.9891 C.3       1 <0>         0.0000
      9 C9          1.4070    0.0308    0.9618 C.3       1 <0>         0.0000
     10 C10        -0.7481    2.4578    0.5622 C.3       1 <0>         0.0000
     11 C11         1.6130   -1.2991    1.6955 C.3       1 <0>         0.0000
     12 C12         0.2808   -1.6522   -0.3185 C.3       1 <0>         0.0000
     13 C13         0.1102   -0.1915    0.1375 C.3       1 <0>         0.0000
     14 C14        -0.5780    2.9772   -1.8639 C.3       1 <0>         0.0000
     15 C15         2.7591   -5.6719    3.5061 C.3       1 <0>         0.0000
     16 N1          1.8347   -4.0175    2.0446 N.ar      1 <0>         0.0000
     17 N2          1.0171   -2.2738    0.7804 N.pl3     1 <0>         0.0000
     18 N3         -0.5617    1.9699   -0.8081 N.am      1 <0>         0.0000
     19 O1          0.4518    0.4437   -2.1770 O.2       1 <0>         0.0000
     20 F1          2.8949   -7.0135    3.6664 F         1 <0>         0.0000
     21 F2          4.0062   -5.1439    3.5067 F         1 <0>         0.0000
     22 F3          2.1275   -5.2026    4.6084 F         1 <0>         0.0000
     23 H1          0.5049   -6.6312   -0.4920 H         1 <0>         0.0000
     24 H2          1.7195   -7.3737    1.5935 H         1 <0>         0.0000
     25 H3          0.1788   -4.2125   -0.9119 H         1 <0>         0.0000
     26 H4         -2.4069    1.5911    1.6714 H         1 <0>         0.0000
     27 H5         -0.8629    1.5081    2.4949 H         1 <0>         0.0000
     28 H6         -1.1549   -0.7480    1.8183 H         1 <0>         0.0000
     29 H7         -2.0178   -0.2995    0.3582 H         1 <0>         0.0000
     30 H8          1.3477    0.8753    1.6514 H         1 <0>         0.0000
     31 H9          2.2392    0.2122    0.2744 H         1 <0>         0.0000
     32 H10        -1.4106    3.3256    0.5078 H         1 <0>         0.0000
     33 H11         0.2111    2.8280    0.9501 H         1 <0>         0.0000
     34 H12         2.6665   -1.5278    1.8753 H         1 <0>         0.0000
     35 H13         1.1088   -1.3219    2.6698 H         1 <0>         0.0000
     36 H14        -0.6918   -2.1356   -0.4646 H         1 <0>         0.0000
     37 H15         0.8327   -1.6976   -1.2632 H         1 <0>         0.0000
     38 H16        -1.5253    3.5249   -1.8314 H         1 <0>         0.0000
     39 H17        -0.4724    2.4810   -2.8273 H         1 <0>         0.0000
     40 H18         0.2467    3.6930   -1.7451 H         1 <0>         0.0000
@<TRIPOS>BOND
     1    1    2 ar
     2    1    3 ar
     3    1   23 1
     4    2    4 ar
     5    2   24 1
     6    3    5 ar
     7    3   25 1
     8    4   15 1
     9    4   16 ar
    10    5   16 ar
    11    5   17 1
    12    6   13 1
    13    6   18 am
    14    6   19 2
    15    7    8 1
    16    7   10 1
    17    7   26 1
    18    7   27 1
    19    8   13 1
    20    8   28 1
    21    8   29 1
    22    9   11 1
    23    9   13 1
    24    9   30 1
    25    9   31 1
    26   10   18 1
    27   10   32 1
    28   10   33 1
    29   11   17 1
    30   11   34 1
    31   11   35 1
    32   12   13 1
    33   12   17 1
    34   12   36 1
    35   12   37 1
    36   14   18 1
    37   14   38 1
    38   14   39 1
    39   14   40 1
    40   15   20 1
    41   15   21 1
    42   15   22 1
