@<TRIPOS>MOLECULE
*****
   51    54     0     0     0
SMALL
NO_CHARGES

@<TRIPOS>ATOM
      1 C1         -3.1559    3.5192   -2.4662 C.1       1 <0>         0.0000
      2 C2         -1.5452    4.9135   -3.6073 C.ar      1 <0>         0.0000
      3 C3         -1.8131    3.7194   -2.9150 C.ar      1 <0>         0.0000
      4 C4         -0.2704    5.2270   -4.0596 C.ar      1 <0>         0.0000
      5 C5          0.7417    4.2801   -3.7790 C.ar      1 <0>         0.0000
      6 C6         -0.7259    2.8164   -2.6972 C.ar      1 <0>         0.0000
      7 C7         -0.0088    0.2207    0.6730 C.2       1 <0>         0.0000
      8 C8          0.3417   -2.6005    0.0505 C.3       1 <0>         0.0000
      9 C9          2.5810   -0.7298    4.0597 C.3       1 <0>         0.0000
     10 C10         1.9034    0.2823    4.9608 C.3       1 <0>         0.0000
     11 C11         0.7013   -1.5625   -1.0085 C.3       1 <0>         0.0000
     12 C12        -1.5900   -0.3999   -1.1451 C.3       1 <0>         0.0000
     13 C13         0.6948   -2.0650    1.4320 C.3       1 <0>         0.0000
     14 C14        -2.0318    1.0221   -1.4956 C.3       1 <0>         0.0000
     15 C15         0.3860    0.8551   -1.7324 C.3       1 <0>         0.0000
     16 C16         1.5723    0.2443    3.4872 C.3       1 <0>         0.0000
     17 C17        -0.0844   -0.2656   -0.7849 C.3       1 <0>         0.0000
     18 C18         0.0196    6.5097   -4.8001 C.3       1 <0>         0.0000
     19 C19         2.1655    4.5290   -4.2109 C.3       1 <0>         0.0000
     20 C20         0.2021   -0.2291    3.0472 C.3       1 <0>         0.0000
     21 N1         -4.2712    3.4259   -2.1329 N.1       1 <0>         0.0000
     22 N2          0.5147    3.1354   -3.1342 N.ar      1 <0>         0.0000
     23 N3         -0.8234    1.6116   -2.0757 N.pl3     1 <0>         0.0000
     24 N4          0.1665   -0.7154    1.6619 N.am      1 <0>         0.0000
     25 O1         -0.1915    1.4127    0.9401 O.2       1 <0>         0.0000
     26 H1         -2.3691    5.6021   -3.7763 H         1 <0>         0.0000
     27 H2         -0.7275   -2.8347    0.0011 H         1 <0>         0.0000
     28 H3          0.8864   -3.5358   -0.1155 H         1 <0>         0.0000
     29 H4          3.6310   -0.5859    3.8215 H         1 <0>         0.0000
     30 H5          2.2837   -1.7702    4.1645 H         1 <0>         0.0000
     31 H6          1.1545   -0.0851    5.6581 H         1 <0>         0.0000
     32 H7          2.4891    1.1171    5.3333 H         1 <0>         0.0000
     33 H8          1.7782   -1.3518   -0.9596 H         1 <0>         0.0000
     34 H9          0.4982   -1.9398   -2.0171 H         1 <0>         0.0000
     35 H10        -2.1933   -0.8269   -0.3408 H         1 <0>         0.0000
     36 H11        -1.6836   -1.0499   -2.0226 H         1 <0>         0.0000
     37 H12         0.2884   -2.7197    2.2109 H         1 <0>         0.0000
     38 H13         1.7863   -2.0574    1.5584 H         1 <0>         0.0000
     39 H14        -2.8557    1.0217   -2.2110 H         1 <0>         0.0000
     40 H15        -2.3436    1.5732   -0.6031 H         1 <0>         0.0000
     41 H16         1.1260    1.5073   -1.2663 H         1 <0>         0.0000
     42 H17         0.8369    0.4301   -2.6373 H         1 <0>         0.0000
     43 H18         1.9660    1.0579    2.8837 H         1 <0>         0.0000
     44 H19         0.7557    7.1268   -4.2715 H         1 <0>         0.0000
     45 H20         0.4221    6.3190   -5.8020 H         1 <0>         0.0000
     46 H21        -0.8895    7.1062   -4.9167 H         1 <0>         0.0000
     47 H22         2.5560    5.4527   -3.7682 H         1 <0>         0.0000
     48 H23         2.7965    3.6941   -3.9035 H         1 <0>         0.0000
     49 H24         2.2334    4.6455   -5.2989 H         1 <0>         0.0000
     50 H25        -0.5129    0.5914    3.1250 H         1 <0>         0.0000
     51 H26        -0.1396   -1.0452    3.6949 H         1 <0>         0.0000
@<TRIPOS>BOND
     1    1    3 1
     2    1   21 3
     3    2    3 ar
     4    2    4 ar
     5    2   26 1
     6    3    6 ar
     7    4    5 ar
     8    4   18 1
     9    5   19 1
    10    5   22 ar
    11    6   22 ar
    12    6   23 1
    13    7   17 1
    14    7   24 am
    15    7   25 2
    16    8   11 1
    17    8   13 1
    18    8   27 1
    19    8   28 1
    20    9   10 1
    21    9   16 1
    22    9   29 1
    23    9   30 1
    24   10   16 1
    25   10   31 1
    26   10   32 1
    27   11   17 1
    28   11   33 1
    29   11   34 1
    30   12   14 1
    31   12   17 1
    32   12   35 1
    33   12   36 1
    34   13   24 1
    35   13   37 1
    36   13   38 1
    37   14   23 1
    38   14   39 1
    39   14   40 1
    40   15   17 1
    41   15   23 1
    42   15   41 1
    43   15   42 1
    44   16   20 1
    45   16   43 1
    46   18   44 1
    47   18   45 1
    48   18   46 1
    49   19   47 1
    50   19   48 1
    51   19   49 1
    52   20   24 1
    53   20   50 1
    54   20   51 1
