@<TRIPOS>MOLECULE
*****
   51    54     0     0     0
SMALL
NO_CHARGES

@<TRIPOS>ATOM
      1 C1         -2.9546    2.6191   -3.4044 C.1       1 <0>         0.0000
      2 C2         -1.7635    4.6908   -3.7625 C.ar      1 <0>         0.0000
      3 C3         -1.7437    3.3697   -3.2818 C.ar      1 <0>         0.0000
      4 C4         -0.6542    5.5207   -3.6679 C.ar      1 <0>         0.0000
      5 C5          0.4923    4.9625   -3.0568 C.ar      1 <0>         0.0000
      6 C6         -0.5305    2.8912   -2.6954 C.ar      1 <0>         0.0000
      7 C7         -0.0281    0.1445    0.5864 C.2       1 <0>         0.0000
      8 C8          1.6166   -2.1960    0.0523 C.3       1 <0>         0.0000
      9 C9          1.4023   -0.4075    4.6731 C.3       1 <0>         0.0000
     10 C10         0.1108    0.1040    5.2783 C.3       1 <0>         0.0000
     11 C11         1.8664   -0.9222   -0.7500 C.3       1 <0>         0.0000
     12 C12        -0.5002   -0.6526   -1.7228 C.3       1 <0>         0.0000
     13 C13         1.2309   -1.8333    1.4804 C.3       1 <0>         0.0000
     14 C14        -1.3266    0.5558   -2.1667 C.3       1 <0>         0.0000
     15 C15         0.8756    1.3117   -1.4540 C.3       1 <0>         0.0000
     16 C16         0.3442    0.2210    3.7902 C.3       1 <0>         0.0000
     17 C17         0.6018   -0.0580   -0.8028 C.3       1 <0>         0.0000
     18 C18        -0.6748    6.9403   -4.1799 C.3       1 <0>         0.0000
     19 C19         1.7477    5.7820   -2.8897 C.3       1 <0>         0.0000
     20 C20        -0.4772   -0.6276    2.8415 C.3       1 <0>         0.0000
     21 N1         -3.9762    2.0697   -3.5402 N.1       1 <0>         0.0000
     22 N2          0.5427    3.7105   -2.6012 N.ar      1 <0>         0.0000
     23 N3         -0.3385    1.6356   -2.2116 N.pl3     1 <0>         0.0000
     24 N4          0.1608   -0.8305    1.5342 N.am      1 <0>         0.0000
     25 O1         -0.7554    1.1193    0.8021 O.2       1 <0>         0.0000
     26 H1         -2.6835    5.0582   -4.2100 H         1 <0>         0.0000
     27 H2          0.8188   -2.7847   -0.4138 H         1 <0>         0.0000
     28 H3          2.5120   -2.8260    0.0775 H         1 <0>         0.0000
     29 H4          2.3157    0.1495    4.8613 H         1 <0>         0.0000
     30 H5          1.5370   -1.4849    4.6208 H         1 <0>         0.0000
     31 H6         -0.6113   -0.6326    5.6216 H         1 <0>         0.0000
     32 H7          0.1424    1.0104    5.8751 H         1 <0>         0.0000
     33 H8          2.6808   -0.3524   -0.2823 H         1 <0>         0.0000
     34 H9          2.1890   -1.1550   -1.7711 H         1 <0>         0.0000
     35 H10        -1.1166   -1.4084   -1.2308 H         1 <0>         0.0000
     36 H11        -0.0187   -1.1182   -2.5903 H         1 <0>         0.0000
     37 H12         0.8835   -2.7215    2.0197 H         1 <0>         0.0000
     38 H13         2.1124   -1.4574    2.0181 H         1 <0>         0.0000
     39 H14        -1.7814    0.3933   -3.1452 H         1 <0>         0.0000
     40 H15        -2.1182    0.7827   -1.4461 H         1 <0>         0.0000
     41 H16         1.0840    2.0868   -0.7151 H         1 <0>         0.0000
     42 H17         1.7385    1.2515   -2.1283 H         1 <0>         0.0000
     43 H18         0.5522    1.2186    3.4123 H         1 <0>         0.0000
     44 H19        -0.4821    7.6640   -3.3792 H         1 <0>         0.0000
     45 H20         0.0867    7.1057   -4.9511 H         1 <0>         0.0000
     46 H21        -1.6472    7.1824   -4.6177 H         1 <0>         0.0000
     47 H22         1.5558    6.6791   -2.2896 H         1 <0>         0.0000
     48 H23         2.5167    5.1846   -2.3983 H         1 <0>         0.0000
     49 H24         2.1278    6.1244   -3.8593 H         1 <0>         0.0000
     50 H25        -1.4428   -0.1514    2.6644 H         1 <0>         0.0000
     51 H26        -0.6569   -1.6160    3.2807 H         1 <0>         0.0000
@<TRIPOS>BOND
     1    1    3 1
     2    1   21 3
     3    2    3 ar
     4    2    4 ar
     5    2   26 1
     6    3    6 ar
     7    4    5 ar
     8    4   18 1
     9    5   19 1
    10    5   22 ar
    11    6   22 ar
    12    6   23 1
    13    7   17 1
    14    7   24 am
    15    7   25 2
    16    8   11 1
    17    8   13 1
    18    8   27 1
    19    8   28 1
    20    9   10 1
    21    9   16 1
    22    9   29 1
    23    9   30 1
    24   10   16 1
    25   10   31 1
    26   10   32 1
    27   11   17 1
    28   11   33 1
    29   11   34 1
    30   12   14 1
    31   12   17 1
    32   12   35 1
    33   12   36 1
    34   13   24 1
    35   13   37 1
    36   13   38 1
    37   14   23 1
    38   14   39 1
    39   14   40 1
    40   15   17 1
    41   15   23 1
    42   15   41 1
    43   15   42 1
    44   16   20 1
    45   16   43 1
    46   18   44 1
    47   18   45 1
    48   18   46 1
    49   19   47 1
    50   19   48 1
    51   19   49 1
    52   20   24 1
    53   20   50 1
    54   20   51 1
