@<TRIPOS>MOLECULE
*****
   38    39     0     0     0
SMALL
NO_CHARGES

@<TRIPOS>ATOM
      1 C1          3.4538    0.9590   -0.2693 C.1       1 <0>         0.0000
      2 C2          1.2636    1.9357   -1.0883 C.2       1 <0>         0.0000
      3 C3         -1.9252    0.3851   -1.2064 C.3       1 <0>         0.0000
      4 C4         -0.0906    0.0802    2.9830 C.3       1 <0>         0.0000
      5 C5         -1.7702   -0.8156   -0.2625 C.3       1 <0>         0.0000
      6 C6         -0.8277    0.5155    1.7113 C.3       1 <0>         0.0000
      7 C7         -0.6274    0.6543   -1.9729 C.3       1 <0>         0.0000
      8 C8         -0.3310   -1.4296    3.0158 C.3       1 <0>         0.0000
      9 C9          0.6972   -0.3254   -0.1447 C.3       1 <0>         0.0000
     10 C10        -0.5758   -0.6148    0.6832 C.3       1 <0>         0.0000
     11 C11         1.9807   -3.2605    1.2644 C.3       1 <0>         0.0000
     12 C12         2.4685    2.0341   -0.1198 C.3       1 <0>         0.0000
     13 N1          4.2075    0.0805   -0.3830 N.1       1 <0>         0.0000
     14 N2          0.4979    0.8101   -1.0395 N.am      1 <0>         0.0000
     15 N3         -0.3537   -1.7868    1.5802 N.pl3     1 <0>         0.0000
     16 O1          1.0421    2.8831   -1.8388 O.2       1 <0>         0.0000
     17 O2         -0.1359   -3.4454   -0.3116 O.2       1 <0>         0.0000
     18 O3         -0.3051   -4.2420    2.1153 O.2       1 <0>         0.0000
     19 S1          0.1760   -3.2897    1.1129 S.o2      1 <0>         0.0000
     20 H1         -2.7277    0.1906   -1.9258 H         1 <0>         0.0000
     21 H2         -2.2063    1.2862   -0.6490 H         1 <0>         0.0000
     22 H3          0.9830    0.2847    2.9008 H         1 <0>         0.0000
     23 H4         -0.4602    0.5824    3.8806 H         1 <0>         0.0000
     24 H5         -2.6759   -0.9691    0.3333 H         1 <0>         0.0000
     25 H6         -1.6079   -1.7252   -0.8454 H         1 <0>         0.0000
     26 H7         -1.9016    0.5888    1.9115 H         1 <0>         0.0000
     27 H8         -0.5013    1.4859    1.3308 H         1 <0>         0.0000
     28 H9         -0.4024   -0.1895   -2.6390 H         1 <0>         0.0000
     29 H10        -0.6894    1.5610   -2.5724 H         1 <0>         0.0000
     30 H11         0.4497   -1.9759    3.5505 H         1 <0>         0.0000
     31 H12        -1.2897   -1.6831    3.4808 H         1 <0>         0.0000
     32 H13         1.5277   -0.1458    0.5330 H         1 <0>         0.0000
     33 H14         0.9445   -1.2047   -0.7487 H         1 <0>         0.0000
     34 H15         2.3270   -4.2724    1.0453 H         1 <0>         0.0000
     35 H16         2.3996   -2.5521    0.5502 H         1 <0>         0.0000
     36 H17         2.2456   -2.9922    2.2882 H         1 <0>         0.0000
     37 H18         2.9428    2.9929   -0.3342 H         1 <0>         0.0000
     38 H19         2.1278    2.0534    0.9210 H         1 <0>         0.0000
@<TRIPOS>BOND
     1    1   12 1
     2    1   13 3
     3    2   12 1
     4    2   14 am
     5    2   16 2
     6    3    5 1
     7    3    7 1
     8    3   20 1
     9    3   21 1
    10    4    6 1
    11    4    8 1
    12    4   22 1
    13    4   23 1
    14    5   10 1
    15    5   24 1
    16    5   25 1
    17    6   10 1
    18    6   26 1
    19    6   27 1
    20    7   14 1
    21    7   28 1
    22    7   29 1
    23    8   15 1
    24    8   30 1
    25    8   31 1
    26    9   10 1
    27    9   14 1
    28    9   32 1
    29    9   33 1
    30   10   15 1
    31   11   19 1
    32   11   34 1
    33   11   35 1
    34   11   36 1
    35   12   37 1
    36   12   38 1
    37   15   19 1
    38   17   19 2
    39   18   19 2
