@<TRIPOS>MOLECULE
*****
   51    54     0     0     0
SMALL
NO_CHARGES

@<TRIPOS>ATOM
      1 C1         -2.1116   -2.7581   -3.9245 C.1       1 <0>         0.0000
      2 C2         -3.4718   -1.0659   -4.9848 C.ar      1 <0>         0.0000
      3 C3         -2.4580   -1.3773   -4.0623 C.ar      1 <0>         0.0000
      4 C4         -3.9095    0.2378   -5.1802 C.ar      1 <0>         0.0000
      5 C5         -3.2801    1.2313   -4.3961 C.ar      1 <0>         0.0000
      6 C6         -1.8722   -0.2999   -3.3267 C.ar      1 <0>         0.0000
      7 C7         -0.4301   -0.1455    0.6882 C.2       1 <0>         0.0000
      8 C8          1.1409    2.3025    0.5662 C.3       1 <0>         0.0000
      9 C9         -0.2727   -1.5375    3.9882 C.3       1 <0>         0.0000
     10 C10        -1.3999   -1.0765    4.8882 C.3       1 <0>         0.0000
     11 C11         1.6433    1.0658   -0.1733 C.3       1 <0>         0.0000
     12 C12         0.9597   -1.1938   -1.1420 C.3       1 <0>         0.0000
     13 C13         0.4799    1.8768    1.8704 C.3       1 <0>         0.0000
     14 C14        -0.1759   -1.6731   -2.0511 C.3       1 <0>         0.0000
     15 C15        -0.4191    0.7247   -1.6431 C.3       1 <0>         0.0000
     16 C16        -0.6637   -0.0756    4.0231 C.3       1 <0>         0.0000
     17 C17         0.4774    0.1346   -0.5226 C.3       1 <0>         0.0000
     18 C18        -5.0002    0.5725   -6.1683 C.3       1 <0>         0.0000
     19 C19        -3.6879    2.6785   -4.5197 C.3       1 <0>         0.0000
     20 C20        -1.3748    0.5310    2.8298 C.3       1 <0>         0.0000
     21 N1         -1.8872   -3.9028   -3.8718 N.1       1 <0>         0.0000
     22 N2         -2.3086    0.9669   -3.5212 N.ar      1 <0>         0.0000
     23 N3         -0.8731   -0.4323   -2.4149 N.pl3     1 <0>         0.0000
     24 N4         -0.4905    0.7941    1.6862 N.am      1 <0>         0.0000
     25 O1         -1.1397   -1.1573    0.7053 O.2       1 <0>         0.0000
     26 H1         -3.9190   -1.8817   -5.5470 H         1 <0>         0.0000
     27 H2          1.9638    2.9883    0.7939 H         1 <0>         0.0000
     28 H3          0.4250    2.8500   -0.0570 H         1 <0>         0.0000
     29 H4          0.6653   -1.8261    4.4541 H         1 <0>         0.0000
     30 H5         -0.5351   -2.0950    3.0951 H         1 <0>         0.0000
     31 H6         -2.4138   -1.3418    4.6011 H         1 <0>         0.0000
     32 H7         -1.2287   -1.0504    5.9604 H         1 <0>         0.0000
     33 H8          2.1739    1.3422   -1.0913 H         1 <0>         0.0000
     34 H9          2.3614    0.5285    0.4603 H         1 <0>         0.0000
     35 H10         1.2106   -1.9387   -0.3847 H         1 <0>         0.0000
     36 H11         1.8575   -0.9916   -1.7366 H         1 <0>         0.0000
     37 H12         1.2532    1.5566    2.5840 H         1 <0>         0.0000
     38 H13        -0.0464    2.7220    2.3285 H         1 <0>         0.0000
     39 H14         0.2048   -2.1806   -2.9406 H         1 <0>         0.0000
     40 H15        -0.8461   -2.3476   -1.5160 H         1 <0>         0.0000
     41 H16        -1.2734    1.2865   -1.2611 H         1 <0>         0.0000
     42 H17         0.1592    1.4112   -2.2765 H         1 <0>         0.0000
     43 H18         0.0156    0.5915    4.5501 H         1 <0>         0.0000
     44 H19        -5.8633    1.0386   -5.6786 H         1 <0>         0.0000
     45 H20        -4.6519    1.2721   -6.9372 H         1 <0>         0.0000
     46 H21        -5.3549   -0.3282   -6.6768 H         1 <0>         0.0000
     47 H22        -4.7506    2.8102   -4.2852 H         1 <0>         0.0000
     48 H23        -3.0957    3.2897   -3.8374 H         1 <0>         0.0000
     49 H24        -3.5416    3.0440   -5.5429 H         1 <0>         0.0000
     50 H25        -1.8439    1.4813    3.1135 H         1 <0>         0.0000
     51 H26        -2.1573   -0.1425    2.4806 H         1 <0>         0.0000
@<TRIPOS>BOND
     1    1    3 1
     2    1   21 3
     3    2    3 ar
     4    2    4 ar
     5    2   26 1
     6    3    6 ar
     7    4    5 ar
     8    4   18 1
     9    5   19 1
    10    5   22 ar
    11    6   22 ar
    12    6   23 1
    13    7   17 1
    14    7   24 am
    15    7   25 2
    16    8   11 1
    17    8   13 1
    18    8   27 1
    19    8   28 1
    20    9   10 1
    21    9   16 1
    22    9   29 1
    23    9   30 1
    24   10   16 1
    25   10   31 1
    26   10   32 1
    27   11   17 1
    28   11   33 1
    29   11   34 1
    30   12   14 1
    31   12   17 1
    32   12   35 1
    33   12   36 1
    34   13   24 1
    35   13   37 1
    36   13   38 1
    37   14   23 1
    38   14   39 1
    39   14   40 1
    40   15   17 1
    41   15   23 1
    42   15   41 1
    43   15   42 1
    44   16   20 1
    45   16   43 1
    46   18   44 1
    47   18   45 1
    48   18   46 1
    49   19   47 1
    50   19   48 1
    51   19   49 1
    52   20   24 1
    53   20   50 1
    54   20   51 1
