@<TRIPOS>MOLECULE
*****
   51    54     0     0     0
SMALL
NO_CHARGES

@<TRIPOS>ATOM
      1 C1         -2.4248   -3.3277   -3.6361 C.1       1 <0>         0.0000
      2 C2         -3.6861   -1.6199   -4.7877 C.ar      1 <0>         0.0000
      3 C3         -2.6531   -1.9387   -3.8892 C.ar      1 <0>         0.0000
      4 C4         -4.0064   -0.3049   -5.1000 C.ar      1 <0>         0.0000
      5 C5         -3.2342    0.6929   -4.4629 C.ar      1 <0>         0.0000
      6 C6         -1.9247   -0.8580   -3.3002 C.ar      1 <0>         0.0000
      7 C7         -0.3414   -0.4023    0.6138 C.2       1 <0>         0.0000
      8 C8          1.4871    1.8156    0.1702 C.3       1 <0>         0.0000
      9 C9         -3.6451    1.2168    3.0952 C.3       1 <0>         0.0000
     10 C10        -3.4589    1.1197    1.5951 C.3       1 <0>         0.0000
     11 C11         1.8346    0.4467   -0.4082 C.3       1 <0>         0.0000
     12 C12         0.8698   -1.8179   -1.0910 C.3       1 <0>         0.0000
     13 C13         0.8193    1.6424    1.5285 C.3       1 <0>         0.0000
     14 C14        -0.3370   -2.2617   -1.9232 C.3       1 <0>         0.0000
     15 C15        -0.2923    0.1788   -1.7984 C.3       1 <0>         0.0000
     16 C16        -2.3080    1.5592    2.4730 C.3       1 <0>         0.0000
     17 C17         0.5626   -0.3779   -0.6290 C.3       1 <0>         0.0000
     18 C18        -5.1170    0.0379   -6.0628 C.3       1 <0>         0.0000
     19 C19        -3.5010    2.1542   -4.7261 C.3       1 <0>         0.0000
     20 C20        -1.1351    0.6224    2.6768 C.3       1 <0>         0.0000
     21 N1         -2.3006   -4.4795   -3.4895 N.1       1 <0>         0.0000
     22 N2         -2.2436    0.4202   -3.6125 N.ar      1 <0>         0.0000
     23 N3         -0.8945   -0.9983   -2.4244 N.pl3     1 <0>         0.0000
     24 N4         -0.2173    0.6069    1.5297 N.am      1 <0>         0.0000
     25 O1         -1.1963   -1.2876    0.7377 O.2       1 <0>         0.0000
     26 H1         -4.2421   -2.4384   -5.2376 H         1 <0>         0.0000
     27 H2          2.3826    2.4336    0.2934 H         1 <0>         0.0000
     28 H3          0.8166    2.3503   -0.5118 H         1 <0>         0.0000
     29 H4         -4.2489    2.0282    3.4911 H         1 <0>         0.0000
     30 H5         -3.7182    0.2883    3.6553 H         1 <0>         0.0000
     31 H6         -3.3914    0.1306    1.1538 H         1 <0>         0.0000
     32 H7         -3.9393    1.8691    0.9725 H         1 <0>         0.0000
     33 H8          2.3730    0.5454   -1.3574 H         1 <0>         0.0000
     34 H9          2.5015   -0.0860    0.2827 H         1 <0>         0.0000
     35 H10         1.0514   -2.4942   -0.2536 H         1 <0>         0.0000
     36 H11         1.7697   -1.7954   -1.7156 H         1 <0>         0.0000
     37 H12         1.5773    1.3861    2.2843 H         1 <0>         0.0000
     38 H13         0.3604    2.5850    1.8461 H         1 <0>         0.0000
     39 H14        -0.0402   -2.9121   -2.7492 H         1 <0>         0.0000
     40 H15        -1.0680   -2.7835   -1.3034 H         1 <0>         0.0000
     41 H16        -1.0679    0.8736   -1.4711 H         1 <0>         0.0000
     42 H17         0.3411    0.7184   -2.5158 H         1 <0>         0.0000
     43 H18        -2.0558    2.6178    2.4413 H         1 <0>         0.0000
     44 H19        -5.8980    0.6406   -5.5845 H         1 <0>         0.0000
     45 H20        -4.7488    0.6131   -6.9204 H         1 <0>         0.0000
     46 H21        -5.5898   -0.8685   -6.4507 H         1 <0>         0.0000
     47 H22        -4.5288    2.4226   -4.4554 H         1 <0>         0.0000
     48 H23        -2.8099    2.7670   -4.1458 H         1 <0>         0.0000
     49 H24        -3.3809    2.3925   -5.7894 H         1 <0>         0.0000
     50 H25        -1.4934   -0.3967    2.8258 H         1 <0>         0.0000
     51 H26        -0.5608    0.9143    3.5646 H         1 <0>         0.0000
@<TRIPOS>BOND
     1    1    3 1
     2    1   21 3
     3    2    3 ar
     4    2    4 ar
     5    2   26 1
     6    3    6 ar
     7    4    5 ar
     8    4   18 1
     9    5   19 1
    10    5   22 ar
    11    6   22 ar
    12    6   23 1
    13    7   17 1
    14    7   24 am
    15    7   25 2
    16    8   11 1
    17    8   13 1
    18    8   27 1
    19    8   28 1
    20    9   10 1
    21    9   16 1
    22    9   29 1
    23    9   30 1
    24   10   16 1
    25   10   31 1
    26   10   32 1
    27   11   17 1
    28   11   33 1
    29   11   34 1
    30   12   14 1
    31   12   17 1
    32   12   35 1
    33   12   36 1
    34   13   24 1
    35   13   37 1
    36   13   38 1
    37   14   23 1
    38   14   39 1
    39   14   40 1
    40   15   17 1
    41   15   23 1
    42   15   41 1
    43   15   42 1
    44   16   20 1
    45   16   43 1
    46   18   44 1
    47   18   45 1
    48   18   46 1
    49   19   47 1
    50   19   48 1
    51   19   49 1
    52   20   24 1
    53   20   50 1
    54   20   51 1
