@<TRIPOS>MOLECULE
*****
   38    39     0     0     0
SMALL
NO_CHARGES

@<TRIPOS>ATOM
      1 C1          5.2329   -0.1661    0.3260 C.1       1 <0>         0.0000
      2 C2          3.1983    0.1017    1.7987 C.2       1 <0>         0.0000
      3 C3          2.6652    1.5273   -1.4400 C.3       1 <0>         0.0000
      4 C4         -1.6337    2.2268   -0.2078 C.3       1 <0>         0.0000
      5 C5          1.4731    0.5559   -1.5204 C.3       1 <0>         0.0000
      6 C6         -0.1830    2.3131   -0.6942 C.3       1 <0>         0.0000
      7 C7          2.9912    1.8831    0.0267 C.3       1 <0>         0.0000
      8 C8         -2.0756    0.8525   -0.7108 C.3       1 <0>         0.0000
      9 C9          1.0081    0.7196    0.9538 C.3       1 <0>         0.0000
     10 C10         0.4041    0.8955   -0.4711 C.3       1 <0>         0.0000
     11 C11        -0.8492   -1.9074   -2.5303 C.3       1 <0>         0.0000
     12 C12         4.7405    0.1391    1.6721 C.3       1 <0>         0.0000
     13 N1          5.5907   -0.3977   -0.7563 N.1       1 <0>         0.0000
     14 N2          2.4686    0.8702    0.9411 N.am      1 <0>         0.0000
     15 N3         -0.8342    0.0654   -0.5801 N.pl3     1 <0>         0.0000
     16 O1          2.6982   -0.6146    2.6599 O.2       1 <0>         0.0000
     17 O2         -2.1844   -2.0316   -0.2730 O.2       1 <0>         0.0000
     18 O3          0.3724   -2.1160   -0.1942 O.2       1 <0>         0.0000
     19 S1         -0.8737   -1.5838   -0.7508 S.o2      1 <0>         0.0000
     20 H1          3.5339    1.0589   -1.9087 H         1 <0>         0.0000
     21 H2          2.4543    2.4494   -1.9912 H         1 <0>         0.0000
     22 H3         -1.6777    2.2520    0.8856 H         1 <0>         0.0000
     23 H4         -2.2609    3.0342   -0.5942 H         1 <0>         0.0000
     24 H5          1.0279    0.5937   -2.5200 H         1 <0>         0.0000
     25 H6          1.8280   -0.4630   -1.3482 H         1 <0>         0.0000
     26 H7         -0.1666    2.5479   -1.7645 H         1 <0>         0.0000
     27 H8          0.3929    3.0817   -0.1747 H         1 <0>         0.0000
     28 H9          4.0638    2.0044    0.1641 H         1 <0>         0.0000
     29 H10         2.5380    2.8442    0.3000 H         1 <0>         0.0000
     30 H11        -2.8725    0.4018   -0.1189 H         1 <0>         0.0000
     31 H12        -2.4049    0.9069   -1.7589 H         1 <0>         0.0000
     32 H13         0.5578    1.4415    1.6487 H         1 <0>         0.0000
     33 H14         0.7939   -0.2795    1.3237 H         1 <0>         0.0000
     34 H15        -0.9732   -2.9849   -2.6554 H         1 <0>         0.0000
     35 H16        -1.6825   -1.3768   -2.9940 H         1 <0>         0.0000
     36 H17         0.1074   -1.5831   -2.9386 H         1 <0>         0.0000
     37 H18         5.1350    1.1117    1.9847 H         1 <0>         0.0000
     38 H19         5.1115   -0.6113    2.3722 H         1 <0>         0.0000
@<TRIPOS>BOND
     1    1   12 1
     2    1   13 3
     3    2   12 1
     4    2   14 am
     5    2   16 2
     6    3    5 1
     7    3    7 1
     8    3   20 1
     9    3   21 1
    10    4    6 1
    11    4    8 1
    12    4   22 1
    13    4   23 1
    14    5   10 1
    15    5   24 1
    16    5   25 1
    17    6   10 1
    18    6   26 1
    19    6   27 1
    20    7   14 1
    21    7   28 1
    22    7   29 1
    23    8   15 1
    24    8   30 1
    25    8   31 1
    26    9   10 1
    27    9   14 1
    28    9   32 1
    29    9   33 1
    30   10   15 1
    31   11   19 1
    32   11   34 1
    33   11   35 1
    34   11   36 1
    35   12   37 1
    36   12   38 1
    37   15   19 1
    38   17   19 2
    39   18   19 2
