@<TRIPOS>MOLECULE
*****
   17    17     0     0     0
SMALL
NO_CHARGES

@<TRIPOS>ATOM
      1 C1          0.5425   -2.8921   -1.4595 C.3       1 <0>         0.0000
      2 C2          1.7770   -2.5165   -2.2643 C.3       1 <0>         0.0000
      3 C3          0.4628   -1.7888   -2.4864 C.3       1 <0>         0.0000
      4 C4         -1.7723   -0.2187   -0.3181 C.3       1 <0>         0.0000
      5 N1         -1.2783    1.7569   -2.2690 N.1       1 <0>         0.0000
      6 N2          0.3571   -0.4387   -2.0023 N.pl3     1 <0>         0.0000
      7 O1         -2.1349   -0.7236   -2.8547 O.2       1 <0>         0.0000
      8 S1         -1.3580    0.2999   -2.0500 S.o       1 <0>         0.0000
      9 H1          0.0467   -3.8355   -1.6759 H         1 <0>         0.0000
     10 H2          0.5203   -2.5819   -0.4188 H         1 <0>         0.0000
     11 H3          2.5590   -1.9682   -1.7460 H         1 <0>         0.0000
     12 H4          2.1265   -3.2044   -3.0323 H         1 <0>         0.0000
     13 H5         -0.0857   -2.0400   -3.3952 H         1 <0>         0.0000
     14 H6         -1.6373   -1.2972   -0.2050 H         1 <0>         0.0000
     15 H7         -1.1262    0.3363    0.3650 H         1 <0>         0.0000
     16 H8         -2.8207    0.0500   -0.1603 H         1 <0>         0.0000
     17 H9          0.8462    0.2019   -2.6307 H         1 <0>         0.0000
@<TRIPOS>BOND
     1    1    2 1
     2    1    3 1
     3    1    9 1
     4    1   10 1
     5    2    3 1
     6    2   11 1
     7    2   12 1
     8    3    6 1
     9    3   13 1
    10    4    8 1
    11    4   14 1
    12    4   15 1
    13    4   16 1
    14    5    8 2
    15    6    8 1
    16    6   17 1
    17    7    8 2
