@<TRIPOS>MOLECULE
*****
   46    47     0     0     0
SMALL
NO_CHARGES

@<TRIPOS>ATOM
      1 C1          1.5388    2.9635    0.5026 C.ar      1 <0>         0.0000
      2 C2          1.9388    4.1614    1.0825 C.ar      1 <0>         0.0000
      3 C3          0.6689    2.1464    1.2665 C.ar      1 <0>         0.0000
      4 C4          0.7127    3.6974    2.9569 C.ar      1 <0>         0.0000
      5 C5          0.5130    0.3966   -0.5096 C.3       1 <0>         0.0000
      6 C6         -0.7947    0.1715    1.5187 C.3       1 <0>         0.0000
      7 C7         -0.0453   -1.0412   -0.4410 C.3       1 <0>         0.0000
      8 C8         -1.2979   -0.8274    0.4620 C.3       1 <0>         0.0000
      9 C9         -0.3806   -1.5920   -1.8304 C.3       1 <0>         0.0000
     10 C10         0.9856   -1.9577    0.2443 C.3       1 <0>         0.0000
     11 C11        -1.9130   -2.0854    1.0697 C.3       1 <0>         0.0000
     12 C12         4.2613    5.1512    1.0526 C.3       1 <0>         0.0000
     13 C13         0.5438    5.4092    4.7085 C.3       1 <0>         0.0000
     14 C14        -0.7385    3.3032    4.8920 C.3       1 <0>         0.0000
     15 C15         2.8825    5.1034    0.3729 C.3       1 <0>         0.0000
     16 N1          1.5345    4.5459    2.3073 N.ar      1 <0>         0.0000
     17 N2          0.2502    2.5210    2.4889 N.ar      1 <0>         0.0000
     18 N3          0.2135    0.9497    0.8080 N.pl3     1 <0>         0.0000
     19 N4          0.3187    4.0524    4.2301 N.pl3     1 <0>         0.0000
     20 O1         -2.2683   -0.1763   -0.3858 O.3       1 <0>         0.0000
     21 H1          1.8624    2.6877   -0.4935 H         1 <0>         0.0000
     22 H2          1.5915    0.3978   -0.7006 H         1 <0>         0.0000
     23 H3          0.0188    0.9733   -1.3020 H         1 <0>         0.0000
     24 H4         -1.5993    0.8153    1.8895 H         1 <0>         0.0000
     25 H5         -0.3640   -0.3342    2.3921 H         1 <0>         0.0000
     26 H6         -0.7755   -2.6114   -1.7633 H         1 <0>         0.0000
     27 H7          0.5244   -1.6312   -2.4474 H         1 <0>         0.0000
     28 H8         -1.1218   -0.9720   -2.3369 H         1 <0>         0.0000
     29 H9          0.6094   -2.9800    0.3450 H         1 <0>         0.0000
     30 H10         1.2681   -1.5965    1.2379 H         1 <0>         0.0000
     31 H11         1.8970   -2.0024   -0.3609 H         1 <0>         0.0000
     32 H12        -2.2332   -2.7721    0.2810 H         1 <0>         0.0000
     33 H13        -2.7973   -1.8224    1.6627 H         1 <0>         0.0000
     34 H14        -1.2173   -2.6071    1.7315 H         1 <0>         0.0000
     35 H15         4.1583    5.4559    2.0976 H         1 <0>         0.0000
     36 H16         4.9212    5.8633    0.5455 H         1 <0>         0.0000
     37 H17         4.7412    4.1667    1.0318 H         1 <0>         0.0000
     38 H18         0.6301    5.3940    5.7998 H         1 <0>         0.0000
     39 H19        -0.2836    6.0824    4.4350 H         1 <0>         0.0000
     40 H20         1.4621    5.8017    4.2769 H         1 <0>         0.0000
     41 H21        -0.6722    3.4779    5.9700 H         1 <0>         0.0000
     42 H22        -0.6229    2.2390    4.6917 H         1 <0>         0.0000
     43 H23        -1.7397    3.6105    4.5513 H         1 <0>         0.0000
     44 H24         2.9894    4.8007   -0.6741 H         1 <0>         0.0000
     45 H25         2.4393    6.1055    0.3842 H         1 <0>         0.0000
     46 H26        -2.9876    0.1468    0.1794 H         1 <0>         0.0000
@<TRIPOS>BOND
     1    1    2 ar
     2    1    3 ar
     3    1   21 1
     4    2   15 1
     5    2   16 ar
     6    3   17 ar
     7    3   18 1
     8    4   16 ar
     9    4   17 ar
    10    4   19 1
    11    5    7 1
    12    5   18 1
    13    5   22 1
    14    5   23 1
    15    6    8 1
    16    6   18 1
    17    6   24 1
    18    6   25 1
    19    7    8 1
    20    7    9 1
    21    7   10 1
    22    8   11 1
    23    8   20 1
    24    9   26 1
    25    9   27 1
    26    9   28 1
    27   10   29 1
    28   10   30 1
    29   10   31 1
    30   11   32 1
    31   11   33 1
    32   11   34 1
    33   12   15 1
    34   12   35 1
    35   12   36 1
    36   12   37 1
    37   13   19 1
    38   13   38 1
    39   13   39 1
    40   13   40 1
    41   14   19 1
    42   14   41 1
    43   14   42 1
    44   14   43 1
    45   15   44 1
    46   15   45 1
    47   20   46 1
