@<TRIPOS>MOLECULE
*****
   46    47     0     0     0
SMALL
NO_CHARGES

@<TRIPOS>ATOM
      1 C1         -2.0509    1.8744    3.8055 C.ar      1 <0>         0.0000
      2 C2         -2.8959    1.3426    4.7728 C.ar      1 <0>         0.0000
      3 C3         -1.8233    1.0794    2.6544 C.ar      1 <0>         0.0000
      4 C4         -3.1777   -0.5542    3.5255 C.ar      1 <0>         0.0000
      5 C5         -0.3568    2.7965    1.5950 C.3       1 <0>         0.0000
      6 C6         -0.7081    0.6614    0.4826 C.3       1 <0>         0.0000
      7 C7          0.1855    2.8935    0.1550 C.3       1 <0>         0.0000
      8 C8          0.4805    1.3864   -0.1699 C.3       1 <0>         0.0000
      9 C9         -0.9231    3.4254   -0.7731 C.3       1 <0>         0.0000
     10 C10         1.4068    3.8142    0.0606 C.3       1 <0>         0.0000
     11 C11         1.8006    0.8874    0.4299 C.3       1 <0>         0.0000
     12 C12        -2.5544    1.4103    7.2742 C.3       1 <0>         0.0000
     13 C13        -4.7737   -2.2466    4.3061 C.3       1 <0>         0.0000
     14 C14        -3.6424   -2.5130    2.1248 C.3       1 <0>         0.0000
     15 C15        -3.1959    2.0882    6.0518 C.3       1 <0>         0.0000
     16 N1         -3.4731    0.1339    4.6475 N.ar      1 <0>         0.0000
     17 N2         -2.3910   -0.1309    2.5162 N.ar      1 <0>         0.0000
     18 N3         -1.0264    1.5002    1.6341 N.pl3     1 <0>         0.0000
     19 N4         -3.7170   -1.8167    3.4011 N.pl3     1 <0>         0.0000
     20 O1          0.4481    1.0918   -1.5706 O.3       1 <0>         0.0000
     21 H1         -1.5954    2.8484    3.9352 H         1 <0>         0.0000
     22 H2          0.4526    2.8485    2.3385 H         1 <0>         0.0000
     23 H3         -1.0564    3.6113    1.8129 H         1 <0>         0.0000
     24 H4         -1.5472    0.5915   -0.2187 H         1 <0>         0.0000
     25 H5         -0.4581   -0.3539    0.7979 H         1 <0>         0.0000
     26 H6         -0.6080    3.3975   -1.8188 H         1 <0>         0.0000
     27 H7         -1.1613    4.4615   -0.5096 H         1 <0>         0.0000
     28 H8         -1.8419    2.8389   -0.6895 H         1 <0>         0.0000
     29 H9          1.8259    3.8091   -0.9528 H         1 <0>         0.0000
     30 H10         2.1998    3.5318    0.7585 H         1 <0>         0.0000
     31 H11         1.1231    4.8485    0.2840 H         1 <0>         0.0000
     32 H12         2.6641    1.3928   -0.0166 H         1 <0>         0.0000
     33 H13         1.8989   -0.1855    0.2415 H         1 <0>         0.0000
     34 H14         1.8413    1.0479    1.5114 H         1 <0>         0.0000
     35 H15        -2.9046    0.3783    7.3623 H         1 <0>         0.0000
     36 H16        -2.8103    1.9449    8.1953 H         1 <0>         0.0000
     37 H17        -1.4629    1.3917    7.1824 H         1 <0>         0.0000
     38 H18        -4.7538   -3.3384    4.3839 H         1 <0>         0.0000
     39 H19        -5.7692   -1.9421    3.9473 H         1 <0>         0.0000
     40 H20        -4.6157   -1.8093    5.2898 H         1 <0>         0.0000
     41 H21        -3.7494   -3.5875    2.3021 H         1 <0>         0.0000
     42 H22        -2.6822   -2.3192    1.6502 H         1 <0>         0.0000
     43 H23        -4.4380   -2.1935    1.4339 H         1 <0>         0.0000
     44 H24        -2.8457    3.1225    5.9681 H         1 <0>         0.0000
     45 H25        -4.2833    2.1168    6.1838 H         1 <0>         0.0000
     46 H26         1.2956    1.3654   -1.9551 H         1 <0>         0.0000
@<TRIPOS>BOND
     1    1    2 ar
     2    1    3 ar
     3    1   21 1
     4    2   15 1
     5    2   16 ar
     6    3   17 ar
     7    3   18 1
     8    4   16 ar
     9    4   17 ar
    10    4   19 1
    11    5    7 1
    12    5   18 1
    13    5   22 1
    14    5   23 1
    15    6    8 1
    16    6   18 1
    17    6   24 1
    18    6   25 1
    19    7    8 1
    20    7    9 1
    21    7   10 1
    22    8   11 1
    23    8   20 1
    24    9   26 1
    25    9   27 1
    26    9   28 1
    27   10   29 1
    28   10   30 1
    29   10   31 1
    30   11   32 1
    31   11   33 1
    32   11   34 1
    33   12   15 1
    34   12   35 1
    35   12   36 1
    36   12   37 1
    37   13   19 1
    38   13   38 1
    39   13   39 1
    40   13   40 1
    41   14   19 1
    42   14   41 1
    43   14   42 1
    44   14   43 1
    45   15   44 1
    46   15   45 1
    47   20   46 1
