@<TRIPOS>MOLECULE
*****
   49    51     0     0     0
SMALL
NO_CHARGES

@<TRIPOS>ATOM
      1 C1         -1.9498   -1.2164   -6.8535 C.ar      1 <0>         0.0000
      2 C2         -0.8458   -0.8095   -7.6082 C.ar      1 <0>         0.0000
      3 C3         -2.4349   -0.3545   -5.8641 C.ar      1 <0>         0.0000
      4 C4         -0.5318    4.3147   -1.5754 C.ar      1 <0>         0.0000
      5 C5          0.6675    2.2718   -1.9740 C.ar      1 <0>         0.0000
      6 C6         -0.8362    4.3926   -2.9358 C.ar      1 <0>         0.0000
      7 C7          0.3689    2.3521   -3.3366 C.ar      1 <0>         0.0000
      8 C8         -0.2401    0.4292   -7.3909 C.ar      1 <0>         0.0000
      9 C9         -1.8380    0.8836   -5.6290 C.ar      1 <0>         0.0000
     10 C10         0.2313    3.2518   -1.0667 C.ar      1 <0>         0.0000
     11 C11        -0.3875    3.4175   -3.8354 C.ar      1 <0>         0.0000
     12 C12        -0.7276    1.3085   -6.3966 C.ar      1 <0>         0.0000
     13 C13         2.6492    4.7503    0.2304 C.2       1 <0>         0.0000
     14 C14         0.1271    3.6633    2.8206 C.3       1 <0>         0.0000
     15 C15         1.6225    3.8367    3.1134 C.3       1 <0>         0.0000
     16 C16        -0.2046    4.0033    1.3610 C.3       1 <0>         0.0000
     17 C17         2.4930    3.0573    2.1169 C.3       1 <0>         0.0000
     18 C18         0.6230    3.1388    0.3983 C.3       1 <0>         0.0000
     19 C19         2.1514    3.3595    0.6466 C.3       1 <0>         0.0000
     20 C20         1.1416    2.8644   -6.8152 C.3       1 <0>         0.0000
     21 C21        -0.7319    3.5347   -5.3161 C.3       1 <0>         0.0000
     22 N1         -0.1225    2.5413   -6.1758 N.pl3     1 <0>         0.0000
     23 O1          3.1111    5.5715    0.9926 O.2       1 <0>         0.0000
     24 O2          2.5987    5.0323   -1.1009 O.3       1 <0>         0.0000
     25 H1         -2.4171   -2.1812   -7.0278 H         1 <0>         0.0000
     26 H2         -0.4484   -1.4595   -8.3842 H         1 <0>         0.0000
     27 H3         -3.2845   -0.6514   -5.2536 H         1 <0>         0.0000
     28 H4         -0.8774    5.1011   -0.9126 H         1 <0>         0.0000
     29 H5          1.2482    1.4265   -1.6087 H         1 <0>         0.0000
     30 H6         -1.4240    5.2329   -3.3017 H         1 <0>         0.0000
     31 H7          0.7138    1.5779   -4.0149 H         1 <0>         0.0000
     32 H8          0.6035    0.7153   -8.0088 H         1 <0>         0.0000
     33 H9         -2.2213    1.5040   -4.8267 H         1 <0>         0.0000
     34 H10        -0.1733    2.6252    3.0210 H         1 <0>         0.0000
     35 H11        -0.4640    4.2953    3.4930 H         1 <0>         0.0000
     36 H12         1.8875    4.8963    3.0615 H         1 <0>         0.0000
     37 H13         1.8472    3.4987    4.1316 H         1 <0>         0.0000
     38 H14        -1.2717    3.8443    1.1693 H         1 <0>         0.0000
     39 H15        -0.0025    5.0671    1.1829 H         1 <0>         0.0000
     40 H16         3.5501    3.2723    2.2966 H         1 <0>         0.0000
     41 H17         2.3507    1.9797    2.2736 H         1 <0>         0.0000
     42 H18         0.4497    2.0919    0.6826 H         1 <0>         0.0000
     43 H19         2.6930    2.6471    0.0103 H         1 <0>         0.0000
     44 H20         1.5468    3.7734   -6.3672 H         1 <0>         0.0000
     45 H21         1.0342    3.0340   -7.8967 H         1 <0>         0.0000
     46 H22         1.8794    2.0666   -6.6667 H         1 <0>         0.0000
     47 H23        -1.8208    3.5043   -5.4383 H         1 <0>         0.0000
     48 H24        -0.4277    4.5263   -5.6686 H         1 <0>         0.0000
     49 H25         2.1237    4.3243   -1.5753 H         1 <0>         0.0000
@<TRIPOS>BOND
     1    1    3 ar
     2    1    2 ar
     3    1   25 1
     4    2    8 ar
     5    2   26 1
     6    3    9 ar
     7    3   27 1
     8    4    6 ar
     9    4   10 ar
    10    4   28 1
    11    5    7 ar
    12    5   10 ar
    13    5   29 1
    14    6   11 ar
    15    6   30 1
    16    7   11 ar
    17    7   31 1
    18    8   12 ar
    19    8   32 1
    20    9   12 ar
    21    9   33 1
    22   10   18 1
    23   11   21 1
    24   12   22 1
    25   13   19 1
    26   13   23 2
    27   13   24 1
    28   14   15 1
    29   14   16 1
    30   14   34 1
    31   14   35 1
    32   15   17 1
    33   15   36 1
    34   15   37 1
    35   16   18 1
    36   16   38 1
    37   16   39 1
    38   17   19 1
    39   17   40 1
    40   17   41 1
    41   18   19 1
    42   18   42 1
    43   19   43 1
    44   20   22 1
    45   20   44 1
    46   20   45 1
    47   20   46 1
    48   21   22 1
    49   21   47 1
    50   21   48 1
    51   24   49 1
