@<TRIPOS>MOLECULE
*****
   48    50     0     0     0
SMALL
NO_CHARGES

@<TRIPOS>ATOM
      1 C1         -0.9111   -1.2817   -6.8821 C.ar      1 <0>         0.0000
      2 C2          0.2171   -0.7194   -6.2716 C.ar      1 <0>         0.0000
      3 C3         -1.9715   -0.4365   -7.2225 C.ar      1 <0>         0.0000
      4 C4          0.0380    3.0414   -1.8873 C.ar      1 <0>         0.0000
      5 C5          2.3332    3.6215   -2.3033 C.ar      1 <0>         0.0000
      6 C6         -0.2093    3.0735   -3.2620 C.ar      1 <0>         0.0000
      7 C7          2.0843    3.6566   -3.6788 C.ar      1 <0>         0.0000
      8 C8          0.2959    0.6475   -6.0132 C.ar      1 <0>         0.0000
      9 C9         -1.9091    0.9359   -6.9751 C.ar      1 <0>         0.0000
     10 C10         1.3194    3.3197   -1.3799 C.ar      1 <0>         0.0000
     11 C11         0.8037    3.3873   -4.1752 C.ar      1 <0>         0.0000
     12 C12        -0.7663    1.5146   -6.3712 C.ar      1 <0>         0.0000
     13 C13        -0.5903    4.5421    0.9488 C.2       1 <0>         0.0000
     14 C14         1.7978    1.8777    2.2052 C.3       1 <0>         0.0000
     15 C15         1.1862    3.0314    3.0147 C.3       1 <0>         0.0000
     16 C16         1.3402    1.9107    0.7392 C.3       1 <0>         0.0000
     17 C17         1.4951    4.3861    2.3604 C.3       1 <0>         0.0000
     18 C18         1.6268    3.2880    0.1042 C.3       1 <0>         0.0000
     19 C19         0.9791    4.4500    0.9069 C.3       1 <0>         0.0000
     20 C20        -1.8790    3.7038   -6.2696 C.3       1 <0>         0.0000
     21 C21         0.5393    3.4930   -5.6706 C.3       1 <0>         0.0000
     22 N1         -0.6916    2.8782   -6.1456 N.pl3     1 <0>         0.0000
     23 O1         -1.2512    3.4652    0.8225 O.co2     1 <0>         0.0000
     24 O2         -1.0273    5.7021    1.1657 O.co2     1 <0>         0.0000
     25 H1         -0.9674   -2.3503   -7.0714 H         1 <0>         0.0000
     26 H2          1.0456   -1.3569   -5.9705 H         1 <0>         0.0000
     27 H3         -2.8652   -0.8459   -7.6893 H         1 <0>         0.0000
     28 H4         -0.7613    2.8390   -1.1792 H         1 <0>         0.0000
     29 H5          3.3369    3.8327   -1.9370 H         1 <0>         0.0000
     30 H6         -1.2075    2.8452   -3.6275 H         1 <0>         0.0000
     31 H7          2.8940    3.8958   -4.3691 H         1 <0>         0.0000
     32 H8          1.1609    1.0359   -5.4887 H         1 <0>         0.0000
     33 H9         -2.7490    1.5592   -7.2614 H         1 <0>         0.0000
     34 H10         2.8967    1.9527    2.2464 H         1 <0>         0.0000
     35 H11         1.5333    0.9116    2.6570 H         1 <0>         0.0000
     36 H12         0.0996    2.9014    3.0602 H         1 <0>         0.0000
     37 H13         1.5672    3.0112    4.0459 H         1 <0>         0.0000
     38 H14         1.8563    1.1285    0.1648 H         1 <0>         0.0000
     39 H15         0.2651    1.7266    0.6901 H         1 <0>         0.0000
     40 H16         1.0381    5.2035    2.9279 H         1 <0>         0.0000
     41 H17         2.5864    4.5475    2.3738 H         1 <0>         0.0000
     42 H18         2.7150    3.4464    0.1887 H         1 <0>         0.0000
     43 H19         1.3234    5.3933    0.4672 H         1 <0>         0.0000
     44 H20        -1.6743    4.6886   -5.8474 H         1 <0>         0.0000
     45 H21        -2.7250    3.2787   -5.7143 H         1 <0>         0.0000
     46 H22        -2.1900    3.8362   -7.3176 H         1 <0>         0.0000
     47 H23         0.4994    4.5511   -5.9546 H         1 <0>         0.0000
     48 H24         1.3858    3.0720   -6.2276 H         1 <0>         0.0000
@<TRIPOS>BOND
     1    1    3 ar
     2    1    2 ar
     3    1   25 1
     4    2    8 ar
     5    2   26 1
     6    3    9 ar
     7    3   27 1
     8    4    6 ar
     9    4   10 ar
    10    4   28 1
    11    5    7 ar
    12    5   10 ar
    13    5   29 1
    14    6   11 ar
    15    6   30 1
    16    7   11 ar
    17    7   31 1
    18    8   12 ar
    19    8   32 1
    20    9   12 ar
    21    9   33 1
    22   10   18 1
    23   11   21 1
    24   12   22 1
    25   13   19 1
    26   13   23 1
    27   13   24 2
    28   14   15 1
    29   14   16 1
    30   14   34 1
    31   14   35 1
    32   15   17 1
    33   15   36 1
    34   15   37 1
    35   16   18 1
    36   16   38 1
    37   16   39 1
    38   17   19 1
    39   17   40 1
    40   17   41 1
    41   18   19 1
    42   18   42 1
    43   19   43 1
    44   20   22 1
    45   20   44 1
    46   20   45 1
    47   20   46 1
    48   21   22 1
    49   21   47 1
    50   21   48 1
