@<TRIPOS>MOLECULE
*****
   35    35     0     0     0
SMALL
NO_CHARGES

@<TRIPOS>ATOM
      1 C1         -0.9506   -1.5262   -1.2302 C.3       1 <0>         0.0000
      2 C2         -0.2537   -2.8543   -1.4850 C.3       1 <0>         0.0000
      3 C3         -0.3315   -0.9882    0.0525 C.3       1 <0>         0.0000
      4 C4          0.9700   -2.8073   -0.5824 C.3       1 <0>         0.0000
      5 C5          1.4967   -4.1876   -0.2236 C.3       1 <0>         0.0000
      6 C6          3.5293   -8.6668   -2.4642 C.3       1 <0>         0.0000
      7 C7          3.9392   -9.2512   -3.8148 C.3       1 <0>         0.0000
      8 C8          1.9421   -4.9520   -1.4595 C.3       1 <0>         0.0000
      9 C9          2.9872   -7.2538   -2.6161 C.3       1 <0>         0.0000
     10 C10         4.5089  -10.6463   -3.6758 C.3       1 <0>         0.0000
     11 N1          0.4863   -2.0770    0.5982 N.3       1 <0>         0.0000
     12 O1          1.4143   -7.3374   -0.5300 O.2       1 <0>         0.0000
     13 O2          3.7478   -6.4132   -0.2608 O.2       1 <0>         0.0000
     14 F1          4.9002  -11.1395   -4.8698 F         1 <0>         0.0000
     15 F2          5.5745  -10.6624   -2.8474 F         1 <0>         0.0000
     16 F3          3.5818  -11.4881   -3.1681 F         1 <0>         0.0000
     17 S1          2.5316   -6.5621   -1.0424 S.o2      1 <0>         0.0000
     18 H1         -0.7804   -0.8308   -2.0594 H         1 <0>         0.0000
     19 H2         -2.0312   -1.6727   -1.1286 H         1 <0>         0.0000
     20 H3         -0.9228   -3.6786   -1.2079 H         1 <0>         0.0000
     21 H4          0.0133   -2.9796   -2.5392 H         1 <0>         0.0000
     22 H5          0.3007   -0.1208   -0.1710 H         1 <0>         0.0000
     23 H6         -1.0933   -0.6740    0.7720 H         1 <0>         0.0000
     24 H7          1.7674   -2.2276   -1.0700 H         1 <0>         0.0000
     25 H8          0.7156   -4.7500    0.3018 H         1 <0>         0.0000
     26 H9          2.3357   -4.0869    0.4754 H         1 <0>         0.0000
     27 H10         2.7683   -9.3049   -1.9984 H         1 <0>         0.0000
     28 H11         4.3908   -8.6596   -1.7853 H         1 <0>         0.0000
     29 H12         3.0711   -9.2833   -4.4834 H         1 <0>         0.0000
     30 H13         4.6872   -8.6040   -4.2873 H         1 <0>         0.0000
     31 H14         1.1150   -5.0887   -2.1626 H         1 <0>         0.0000
     32 H15         2.7597   -4.4373   -1.9729 H         1 <0>         0.0000
     33 H16         3.7352   -6.5850   -3.0521 H         1 <0>         0.0000
     34 H17         2.0903   -7.2365   -3.2422 H         1 <0>         0.0000
     35 H18         1.2644   -1.7089    1.1426 H         1 <0>         0.0000
@<TRIPOS>BOND
     1    1    2 1
     2    1    3 1
     3    1   18 1
     4    1   19 1
     5    2    4 1
     6    2   20 1
     7    2   21 1
     8    3   11 1
     9    3   22 1
    10    3   23 1
    11    4    5 1
    12    4   11 1
    13    4   24 1
    14    5    8 1
    15    5   25 1
    16    5   26 1
    17    6    7 1
    18    6    9 1
    19    6   27 1
    20    6   28 1
    21    7   10 1
    22    7   29 1
    23    7   30 1
    24    8   17 1
    25    8   31 1
    26    8   32 1
    27    9   17 1
    28    9   33 1
    29    9   34 1
    30   10   14 1
    31   10   15 1
    32   10   16 1
    33   11   35 1
    34   12   17 2
    35   13   17 2
