@<TRIPOS>MOLECULE
*****
   23    24     0     0     0
SMALL
NO_CHARGES

@<TRIPOS>ATOM
      1 C1         -0.4257   -4.0463    4.5196 C.2       1 <0>         0.0000
      2 C2         -1.5469   -3.2670    4.6813 C.2       1 <0>         0.0000
      3 C3          0.2577   -2.0342    4.3979 C.2       1 <0>         0.0000
      4 C4          0.3386    0.6107    2.3662 C.2       1 <0>         0.0000
      5 C5          2.3725   -0.7088    5.1685 C.3       1 <0>         0.0000
      6 C6          1.1964    0.1761    5.4256 C.3       1 <0>         0.0000
      7 C7          1.1637   -0.7871    4.2498 C.3       1 <0>         0.0000
      8 C8          0.6291    1.0080    0.9570 C.3       1 <0>         0.0000
      9 N1          0.6944   -3.2729    4.3440 N.2       1 <0>         0.0000
     10 N2         -1.0932   -1.9805    4.6014 N.pl3     1 <0>         0.0000
     11 N3          1.2543   -0.2751    2.9012 N.am      1 <0>         0.0000
     12 O1         -0.6443    1.0728    2.9339 O.2       1 <0>         0.0000
     13 H1         -0.3680   -5.1251    4.5200 H         1 <0>         0.0000
     14 H2         -2.5894   -3.5007    4.8415 H         1 <0>         0.0000
     15 H3          3.2764   -0.2462    4.7891 H         1 <0>         0.0000
     16 H4          2.5533   -1.5212    5.8628 H         1 <0>         0.0000
     17 H5          0.5839   -0.0393    6.2934 H         1 <0>         0.0000
     18 H6          1.3087    1.2343    5.2192 H         1 <0>         0.0000
     19 H7          0.1510    0.3382    0.2242 H         1 <0>         0.0000
     20 H8          0.2536    2.0160    0.7184 H         1 <0>         0.0000
     21 H9          1.6959    1.0239    0.6821 H         1 <0>         0.0000
     22 H10        -1.6549   -1.1430    4.6770 H         1 <0>         0.0000
     23 H11         2.0281   -0.5810    2.3189 H         1 <0>         0.0000
@<TRIPOS>BOND
     1    1    2 2
     2    1    9 1
     3    1   13 1
     4    2   10 1
     5    2   14 1
     6    3    7 1
     7    3    9 2
     8    3   10 1
     9    4    8 1
    10    4   11 am
    11    4   12 2
    12    5    6 1
    13    5    7 1
    14    5   15 1
    15    5   16 1
    16    6    7 1
    17    6   17 1
    18    6   18 1
    19    7   11 1
    20    8   19 1
    21    8   20 1
    22    8   21 1
    23   10   22 1
    24   11   23 1
