@<TRIPOS>MOLECULE
*****
   28    29     0     0     0
SMALL
NO_CHARGES

@<TRIPOS>ATOM
      1 C1          1.9722   -0.7499    3.9237 C.ar      1 <0>         0.0000
      2 C2          2.7968   -1.7870    3.5366 C.ar      1 <0>         0.0000
      3 C3          1.1907   -0.1473    2.9536 C.ar      1 <0>         0.0000
      4 C4          1.2858   -0.6215    1.6607 C.ar      1 <0>         0.0000
      5 C5         -0.0100    1.1928   -1.2796 C.3       1 <0>         0.0000
      6 C6         -1.2824    0.5808   -0.7154 C.3       1 <0>         0.0000
      7 C7          0.9722    1.1101   -0.1153 C.3       1 <0>         0.0000
      8 C8         -0.7739   -0.5463    0.1945 C.3       1 <0>         0.0000
      9 C9          0.2858    0.9761    3.3295 C.3       1 <0>         0.0000
     10 C10        -0.5792   -1.8468   -0.5843 C.3       1 <0>         0.0000
     11 N1          2.8697   -2.2306    2.2638 N.ar      1 <0>         0.0000
     12 N2          2.1019   -1.6380    1.3103 N.ar      1 <0>         0.0000
     13 N3          0.5133   -0.0319    0.6778 N.pl3     1 <0>         0.0000
     14 H1          1.9437   -0.4255    4.9584 H         1 <0>         0.0000
     15 H2          3.4331   -2.2998    4.2485 H         1 <0>         0.0000
     16 H3          0.3555    0.5999   -2.1259 H         1 <0>         0.0000
     17 H4         -0.1622    2.2203   -1.6227 H         1 <0>         0.0000
     18 H5         -1.8171    1.3285   -0.1167 H         1 <0>         0.0000
     19 H6         -1.9553    0.2287   -1.5030 H         1 <0>         0.0000
     20 H7          2.0016    0.9741   -0.4619 H         1 <0>         0.0000
     21 H8          0.9188    2.0288    0.4812 H         1 <0>         0.0000
     22 H9         -1.4866   -0.7081    1.0066 H         1 <0>         0.0000
     23 H10         0.8082    1.9362    3.2353 H         1 <0>         0.0000
     24 H11        -0.6060    1.0016    2.6894 H         1 <0>         0.0000
     25 H12        -0.0692    0.8737    4.3636 H         1 <0>         0.0000
     26 H13         0.1310   -1.6914   -1.3961 H         1 <0>         0.0000
     27 H14        -1.5300   -2.1753   -1.0034 H         1 <0>         0.0000
     28 H15        -0.1964   -2.6231    0.0778 H         1 <0>         0.0000
@<TRIPOS>BOND
     1    1    2 ar
     2    1    3 ar
     3    1   14 1
     4    2   11 ar
     5    2   15 1
     6    3    4 ar
     7    3    9 1
     8    4   12 ar
     9    4   13 1
    10    5    6 1
    11    5    7 1
    12    5   16 1
    13    5   17 1
    14    6    8 1
    15    6   18 1
    16    6   19 1
    17    7   13 1
    18    7   20 1
    19    7   21 1
    20    8   10 1
    21    8   13 1
    22    8   22 1
    23    9   23 1
    24    9   24 1
    25    9   25 1
    26   10   26 1
    27   10   27 1
    28   10   28 1
    29   11   12 ar
