@<TRIPOS>MOLECULE
*****
   24    23     0     0     0
SMALL
NO_CHARGES

@<TRIPOS>ATOM
      1 C1          0.9585    2.0075    1.1680 C.3       1 <0>         0.0000
      2 C2          1.9472    1.7536   -1.0069 C.3       1 <0>         0.0000
      3 C3          4.2549   -2.4918    3.0536 C.3       1 <0>         0.0000
      4 C4          1.0726   -0.1641    0.1465 C.3       1 <0>         0.0000
      5 C5          2.7856   -1.3553    1.6141 C.3       1 <0>         0.0000
      6 C6          1.3103   -1.0582    1.3635 C.3       1 <0>         0.0000
      7 N1          1.7318    1.1130    0.2969 N.3       1 <0>         0.0000
      8 O1          0.6205   -2.2967    1.1915 O.3       1 <0>         0.0000
      9 O2          2.9000   -2.1679    2.7783 O.3       1 <0>         0.0000
     10 H1          0.7949    1.5359    2.1405 H         1 <0>         0.0000
     11 H2         -0.0124    2.2286    0.7164 H         1 <0>         0.0000
     12 H3          1.4971    2.9470    1.3187 H         1 <0>         0.0000
     13 H4          2.5225    1.0923   -1.6600 H         1 <0>         0.0000
     14 H5          2.4974    2.6902   -0.8816 H         1 <0>         0.0000
     15 H6          0.9879    1.9719   -1.4839 H         1 <0>         0.0000
     16 H7          4.3066   -3.1140    3.9504 H         1 <0>         0.0000
     17 H8          4.8274   -1.5726    3.2014 H         1 <0>         0.0000
     18 H9          4.6678   -3.0435    2.2057 H         1 <0>         0.0000
     19 H10         1.4646   -0.6472   -0.7548 H         1 <0>         0.0000
     20 H11         0.0000    0.0000    0.0000 H         1 <0>         0.0000
     21 H12         3.3486   -0.4331    1.7876 H         1 <0>         0.0000
     22 H13         3.2314   -1.9077    0.7807 H         1 <0>         0.0000
     23 H14         0.8805   -0.5815    2.2525 H         1 <0>         0.0000
     24 H15         0.8022   -2.8232    1.9843 H         1 <0>         0.0000
@<TRIPOS>BOND
     1    1    7 1
     2    1   10 1
     3    1   11 1
     4    1   12 1
     5    2    7 1
     6    2   13 1
     7    2   14 1
     8    2   15 1
     9    3    9 1
    10    3   16 1
    11    3   17 1
    12    3   18 1
    13    4    6 1
    14    4    7 1
    15    4   19 1
    16    4   20 1
    17    5    6 1
    18    5    9 1
    19    5   21 1
    20    5   22 1
    21    6    8 1
    22    6   23 1
    23    8   24 1
