@<TRIPOS>MOLECULE
*****
   48    48     0     0     0
SMALL
NO_CHARGES

@<TRIPOS>ATOM
      1 C1          0.1499    3.1041    5.1208 C.1       1 <0>         0.0000
      2 C2          3.9185   -4.3269    1.3152 C.1       1 <0>         0.0000
      3 C3          5.2381    1.7830   -2.9765 C.1       1 <0>         0.0000
      4 C4         -0.8862    0.6350    1.0409 C.3       1 <0>         0.0000
      5 C5          0.1618   -1.5023   -0.0040 C.3       1 <0>         0.0000
      6 C6          1.1309    0.8120   -0.5301 C.3       1 <0>         0.0000
      7 C7         -1.1115   -0.8016    0.5196 C.3       1 <0>         0.0000
      8 C8         -0.1529    1.4951   -0.0081 C.3       1 <0>         0.0000
      9 C9          0.8789   -0.6227   -1.0477 C.3       1 <0>         0.0000
     10 C10         0.3942    1.8768    4.3486 C.3       1 <0>         0.0000
     11 C11         2.9677   -3.2909    1.7454 C.3       1 <0>         0.0000
     12 C12         3.8254    2.1427   -2.7843 C.3       1 <0>         0.0000
     13 C13        -0.3892    1.8612    3.0402 C.3       1 <0>         0.0000
     14 C14         2.0089   -2.8972    0.6267 C.3       1 <0>         0.0000
     15 C15         3.1555    1.2757   -1.7235 C.3       1 <0>         0.0000
     16 N1         -0.0416    4.0717    5.7319 N.1       1 <0>         0.0000
     17 N2          4.6698   -5.1443    0.9778 N.1       1 <0>         0.0000
     18 N3          6.3531    1.5008   -3.1296 N.1       1 <0>         0.0000
     19 N4         -0.1363    0.6376    2.2998 N.3       1 <0>         0.0000
     20 N5          1.0852   -1.8691    1.0741 N.3       1 <0>         0.0000
     21 N6          1.7619    1.6455   -1.5573 N.3       1 <0>         0.0000
     22 O1         -1.7396   -1.6130    1.5122 O.3       1 <0>         0.0000
     23 O2         -1.0567    1.7867   -1.0771 O.3       1 <0>         0.0000
     24 O3          0.0645   -0.6032   -2.2225 O.3       1 <0>         0.0000
     25 H1         -1.8631    1.0959    1.2625 H         1 <0>         0.0000
     26 H2         -0.1316   -2.4527   -0.4905 H         1 <0>         0.0000
     27 H3          1.8674    0.7709    0.2894 H         1 <0>         0.0000
     28 H4         -1.8602   -0.7511   -0.3374 H         1 <0>         0.0000
     29 H5          0.1196    2.4652    0.4434 H         1 <0>         0.0000
     30 H6          1.8307   -1.0797   -1.3273 H         1 <0>         0.0000
     31 H7          0.0941    1.0124    4.9523 H         1 <0>         0.0000
     32 H8          1.4675    1.7733    4.1507 H         1 <0>         0.0000
     33 H9          3.5289   -2.4036    2.0606 H         1 <0>         0.0000
     34 H10         2.4081   -3.6442    2.6194 H         1 <0>         0.0000
     35 H11         3.2944    2.0143   -3.7348 H         1 <0>         0.0000
     36 H12         3.7482    3.2024   -2.5141 H         1 <0>         0.0000
     37 H13        -1.4613    1.9223    3.2542 H         1 <0>         0.0000
     38 H14        -0.1258    2.7231    2.4171 H         1 <0>         0.0000
     39 H15         2.5781   -2.5067   -0.2232 H         1 <0>         0.0000
     40 H16         1.4417   -3.7661    0.2748 H         1 <0>         0.0000
     41 H17         3.2022    0.2246   -2.0263 H         1 <0>         0.0000
     42 H18         3.6721    1.3669   -0.7615 H         1 <0>         0.0000
     43 H19        -0.4276   -0.1641    2.8515 H         1 <0>         0.0000
     44 H20         0.5439   -2.2140    1.8619 H         1 <0>         0.0000
     45 H21         1.6943    2.6163   -1.2689 H         1 <0>         0.0000
     46 H22        -2.5870   -1.1893    1.7105 H         1 <0>         0.0000
     47 H23        -0.5629    2.3255   -1.7131 H         1 <0>         0.0000
     48 H24         0.5495   -0.0866   -2.8838 H         1 <0>         0.0000
@<TRIPOS>BOND
     1    1   10 1
     2    1   16 3
     3    2   11 1
     4    2   17 3
     5    3   12 1
     6    3   18 3
     7    4    8 1
     8    4    7 1
     9    4   19 1
    10    4   25 1
    11    5    7 1
    12    5    9 1
    13    5   20 1
    14    5   26 1
    15    6    8 1
    16    6    9 1
    17    6   21 1
    18    6   27 1
    19    7   22 1
    20    7   28 1
    21    8   23 1
    22    8   29 1
    23    9   24 1
    24    9   30 1
    25   10   13 1
    26   10   31 1
    27   10   32 1
    28   11   14 1
    29   11   33 1
    30   11   34 1
    31   12   15 1
    32   12   35 1
    33   12   36 1
    34   13   19 1
    35   13   37 1
    36   13   38 1
    37   14   20 1
    38   14   39 1
    39   14   40 1
    40   15   21 1
    41   15   41 1
    42   15   42 1
    43   19   43 1
    44   20   44 1
    45   21   45 1
    46   22   46 1
    47   23   47 1
    48   24   48 1
