@<TRIPOS>MOLECULE
*****
   42    44     0     0     0
SMALL
NO_CHARGES

@<TRIPOS>ATOM
      1 C1          3.7360   -4.6417    4.6101 C.ar      1 <0>         0.0000
      2 C2          2.7036   -4.5648    3.6749 C.ar      1 <0>         0.0000
      3 C3          0.0141   -0.6536    2.0534 C.ar      1 <0>         0.0000
      4 C4          0.2391   -2.1323    0.1567 C.ar      1 <0>         0.0000
      5 C5          1.1943   -3.8399    5.4248 C.ar      1 <0>         0.0000
      6 C6          0.1045   -1.7355    2.9450 C.ar      1 <0>         0.0000
      7 C7          3.4959   -4.3289    5.9504 C.ar      1 <0>         0.0000
      8 C8          0.0790   -0.8496    0.6720 C.ar      1 <0>         0.0000
      9 C9          1.4336   -4.1560    4.0844 C.ar      1 <0>         0.0000
     10 C10         0.3053   -3.0178    2.4072 C.ar      1 <0>         0.0000
     11 C11         0.3473   -3.2174    1.0221 C.ar      1 <0>         0.0000
     12 C12         2.2230   -3.9335    6.3639 C.ar      1 <0>         0.0000
     13 C13        -0.1465   -3.4276    5.8721 C.2       1 <0>         0.0000
     14 C14         0.0325   -1.4519    4.4243 C.3       1 <0>         0.0000
     15 C15        -0.0278    0.3168   -0.2513 C.3       1 <0>         0.0000
     16 C16        -0.6844   -5.2115    0.2378 C.3       1 <0>         0.0000
     17 C17         2.2303   -2.2681    8.0615 C.3       1 <0>         0.0000
     18 C18         4.6202   -4.4269    6.9291 C.3       1 <0>         0.0000
     19 O1         -0.6877   -3.9860    6.8170 O.2       1 <0>         0.0000
     20 O2          0.3973   -4.1540    3.1818 O.3       1 <0>         0.0000
     21 O3         -0.7383   -2.4397    5.1502 O.3       1 <0>         0.0000
     22 O4          4.2829   -5.3682    7.9395 O.3       1 <0>         0.0000
     23 O5          0.5031   -4.4676    0.5015 O.3       1 <0>         0.0000
     24 O6          2.0086   -3.6220    7.6740 O.3       1 <0>         0.0000
     25 H1          4.7251   -4.9571    4.2874 H         1 <0>         0.0000
     26 H2          2.8942   -4.8316    2.6394 H         1 <0>         0.0000
     27 H3         -0.1132    0.3558    2.4404 H         1 <0>         0.0000
     28 H4          0.2810   -2.2891   -0.9182 H         1 <0>         0.0000
     29 H5          1.0365   -1.3288    4.8467 H         1 <0>         0.0000
     30 H6         -0.4910   -0.5037    4.5930 H         1 <0>         0.0000
     31 H7          0.9658    0.7336   -0.4565 H         1 <0>         0.0000
     32 H8         -0.4882    0.0289   -1.2053 H         1 <0>         0.0000
     33 H9         -0.6555    1.1085    0.1781 H         1 <0>         0.0000
     34 H10        -0.4195   -6.1883   -0.1741 H         1 <0>         0.0000
     35 H11        -1.3094   -4.6625   -0.4711 H         1 <0>         0.0000
     36 H12        -1.2325   -5.3493    1.1729 H         1 <0>         0.0000
     37 H13         2.0239   -2.1552    9.1287 H         1 <0>         0.0000
     38 H14         1.5775   -1.6106    7.4818 H         1 <0>         0.0000
     39 H15         3.2732   -2.0083    7.8650 H         1 <0>         0.0000
     40 H16         5.5474   -4.7521    6.4396 H         1 <0>         0.0000
     41 H17         4.8181   -3.4557    7.4010 H         1 <0>         0.0000
     42 H18         5.0351   -5.4026    8.5523 H         1 <0>         0.0000
@<TRIPOS>BOND
     1    1    2 ar
     2    1    7 ar
     3    1   25 1
     4    2    9 ar
     5    2   26 1
     6    3    6 ar
     7    3    8 ar
     8    3   27 1
     9    4    8 ar
    10    4   11 ar
    11    4   28 1
    12    5    9 ar
    13    5   12 ar
    14    5   13 1
    15    6   10 ar
    16    6   14 1
    17    7   12 ar
    18    7   18 1
    19    8   15 1
    20    9   20 1
    21   10   11 ar
    22   10   20 1
    23   11   23 1
    24   12   24 1
    25   13   19 2
    26   13   21 1
    27   14   21 1
    28   14   29 1
    29   14   30 1
    30   15   31 1
    31   15   32 1
    32   15   33 1
    33   16   23 1
    34   16   34 1
    35   16   35 1
    36   16   36 1
    37   17   24 1
    38   17   37 1
    39   17   38 1
    40   17   39 1
    41   18   22 1
    42   18   40 1
    43   18   41 1
    44   22   42 1
