@<TRIPOS>MOLECULE
*****
   49    50     0     0     0
SMALL
NO_CHARGES

@<TRIPOS>ATOM
      1 C1         -2.4589    5.3292    0.7151 C.ar      1 <0>         0.0000
      2 C2         -1.4320    4.7780    1.4814 C.ar      1 <0>         0.0000
      3 C3         -2.4789    5.1367   -0.6663 C.ar      1 <0>         0.0000
      4 C4         -0.4249    4.0343    0.8662 C.ar      1 <0>         0.0000
      5 C5         -1.4718    4.3930   -1.2814 C.ar      1 <0>         0.0000
      6 C6         -0.4448    3.8418   -0.5152 C.ar      1 <0>         0.0000
      7 C7         -1.2736   -2.4215    0.8770 C.2       1 <0>         0.0000
      8 C8          0.5383   -1.2190    0.9232 C.2       1 <0>         0.0000
      9 C9         -0.5591    0.6132   -0.5571 C.2       1 <0>         0.0000
     10 C10         0.6591    3.4594    1.7185 C.3       1 <0>         0.0000
     11 C11        -3.8695   -4.7796    0.2585 C.3       1 <0>         0.0000
     12 C12        -4.2868   -2.6524    1.5439 C.3       1 <0>         0.0000
     13 C13         0.6296   -3.4035    2.1969 C.3       1 <0>         0.0000
     14 C14        -2.8024    4.2005   -3.2431 C.3       1 <0>         0.0000
     15 C15        -2.7514    3.3046   -4.4603 C.3       1 <0>         0.0000
     16 C16        -3.3634   -3.3817    0.5800 C.3       1 <0>         0.0000
     17 N1         -1.6242   -1.4022    0.1591 N.2       1 <0>         0.0000
     18 N2         -0.0160   -2.4025    1.3713 N.am      1 <0>         0.0000
     19 N3         -0.5035   -0.5943    0.1514 N.am      1 <0>         0.0000
     20 N4          0.6410    1.3943   -0.5210 N.am      1 <0>         0.0000
     21 O1          1.6643   -0.7896    1.1311 O.2       1 <0>         0.0000
     22 O2         -1.5563    0.9895   -1.1706 O.2       1 <0>         0.0000
     23 O3          0.4722    2.7605   -2.7022 O.2       1 <0>         0.0000
     24 O4          2.0981    3.4899   -0.9239 O.2       1 <0>         0.0000
     25 O5         -1.5139    4.2195   -2.6325 O.3       1 <0>         0.0000
     26 O6         -2.0678   -3.4741    1.1534 O.3       1 <0>         0.0000
     27 F1         -2.4303    2.0440   -4.0589 F         1 <0>         0.0000
     28 S1          0.8277    2.9023   -1.3034 S.o2      1 <0>         0.0000
     29 H1         -3.2438    5.9072    1.1942 H         1 <0>         0.0000
     30 H2         -1.4254    4.9349    2.5568 H         1 <0>         0.0000
     31 H3         -3.2826    5.5678   -1.2570 H         1 <0>         0.0000
     32 H4          0.3799    2.4570    2.0625 H         1 <0>         0.0000
     33 H5          1.6030    3.3891    1.1644 H         1 <0>         0.0000
     34 H6          0.8496    4.0902    2.5955 H         1 <0>         0.0000
     35 H7         -3.9720   -5.3832    1.1654 H         1 <0>         0.0000
     36 H8         -4.8439   -4.7270   -0.2390 H         1 <0>         0.0000
     37 H9         -3.1922   -5.2955   -0.4311 H         1 <0>         0.0000
     38 H10        -4.3993   -3.2052    2.4815 H         1 <0>         0.0000
     39 H11        -5.2771   -2.5186    1.0954 H         1 <0>         0.0000
     40 H12        -3.9069   -1.6503    1.7716 H         1 <0>         0.0000
     41 H13         1.1353   -4.1391    1.5541 H         1 <0>         0.0000
     42 H14         1.3693   -2.9181    2.8505 H         1 <0>         0.0000
     43 H15        -0.1257   -3.9131    2.8131 H         1 <0>         0.0000
     44 H16        -3.0671    5.2237   -3.5249 H         1 <0>         0.0000
     45 H17        -3.5230    3.8187   -2.5141 H         1 <0>         0.0000
     46 H18        -3.7173    3.2528   -4.9701 H         1 <0>         0.0000
     47 H19        -1.9807    3.6346   -5.1616 H         1 <0>         0.0000
     48 H20        -3.2718   -2.8043   -0.3458 H         1 <0>         0.0000
     49 H21         1.4412    1.0258    0.0085 H         1 <0>         0.0000
@<TRIPOS>BOND
     1    1    2 ar
     2    1    3 ar
     3    1   29 1
     4    2    4 ar
     5    2   30 1
     6    3    5 ar
     7    3   31 1
     8    4    6 ar
     9    4   10 1
    10    5    6 ar
    11    5   25 1
    12    6   28 1
    13    7   17 2
    14    7   18 1
    15    7   26 1
    16    8   18 am
    17    8   19 am
    18    8   21 2
    19    9   19 am
    20    9   20 am
    21    9   22 2
    22   10   32 1
    23   10   33 1
    24   10   34 1
    25   11   16 1
    26   11   35 1
    27   11   36 1
    28   11   37 1
    29   12   16 1
    30   12   38 1
    31   12   39 1
    32   12   40 1
    33   13   18 1
    34   13   41 1
    35   13   42 1
    36   13   43 1
    37   14   15 1
    38   14   25 1
    39   14   44 1
    40   14   45 1
    41   15   27 1
    42   15   46 1
    43   15   47 1
    44   16   26 1
    45   16   48 1
    46   17   19 1
    47   20   28 1
    48   20   49 1
    49   23   28 2
    50   24   28 2
