@<TRIPOS>MOLECULE
*****
   21    22     0     0     0
SMALL
NO_CHARGES

@<TRIPOS>ATOM
      1 C1          1.2669    1.7982    3.0274 C.ar      1 <0>         0.0000
      2 C2         -1.0555    2.0387    2.9546 C.ar      1 <0>         0.0000
      3 C3          0.1311    2.3449    3.5891 C.ar      1 <0>         0.0000
      4 C4          0.0382    0.7867    1.4043 C.ar      1 <0>         0.0000
      5 C5         -0.1735   -1.5254    0.4411 C.2       1 <0>         0.0000
      6 C6         -0.6668    0.4889   -1.0574 C.3       1 <0>         0.0000
      7 C7          0.8187    0.3342   -1.0096 C.3       1 <0>         0.0000
      8 C8         -0.0146   -0.0786    0.1944 C.3       1 <0>         0.0000
      9 N1          1.2569    1.0118    1.9311 N.ar      1 <0>         0.0000
     10 N2         -1.1389    1.2600    1.8560 N.ar      1 <0>         0.0000
     11 N3          1.0175   -2.1995    0.5727 N.am      1 <0>         0.0000
     12 O1         -1.2785   -2.0543    0.5338 O.2       1 <0>         0.0000
     13 Br1         0.1957    3.4338    5.1156 Br        1 <0>         0.0000
     14 H1          2.2523    1.9757    3.4464 H         1 <0>         0.0000
     15 H2         -2.0080    2.4166    3.3135 H         1 <0>         0.0000
     16 H3         -1.0687    1.4955   -1.0262 H         1 <0>         0.0000
     17 H4         -1.2221   -0.1835   -1.7014 H         1 <0>         0.0000
     18 H5          1.2634   -0.4427   -1.6212 H         1 <0>         0.0000
     19 H6          1.4164    1.2361   -0.9461 H         1 <0>         0.0000
     20 H7          0.9947   -3.1993    0.7443 H         1 <0>         0.0000
     21 H8          1.9185   -1.7373    0.5050 H         1 <0>         0.0000
@<TRIPOS>BOND
     1    1    3 ar
     2    1    9 ar
     3    1   14 1
     4    2    3 ar
     5    2   10 ar
     6    2   15 1
     7    3   13 1
     8    4    8 1
     9    4    9 ar
    10    4   10 ar
    11    5    8 1
    12    5   11 am
    13    5   12 2
    14    6    7 1
    15    6    8 1
    16    6   16 1
    17    6   17 1
    18    7    8 1
    19    7   18 1
    20    7   19 1
    21   11   20 1
    22   11   21 1
