@<TRIPOS>MOLECULE
*****
   23    23     0     0     0
SMALL
NO_CHARGES

@<TRIPOS>ATOM
      1 C1          1.8851   -1.0363   -0.1124 C.ar      1 <0>         0.0000
      2 C2          0.8066   -0.4630    0.5610 C.ar      1 <0>         0.0000
      3 C3          2.9210   -1.6309    0.6081 C.ar      1 <0>         0.0000
      4 C4          0.7638   -0.4841    1.9551 C.ar      1 <0>         0.0000
      5 C5          2.8783   -1.6520    2.0022 C.ar      1 <0>         0.0000
      6 C6          1.7997   -1.0786    2.6757 C.ar      1 <0>         0.0000
      7 C7          3.9764   -2.2803    2.7261 C.2       1 <0>         0.0000
      8 C8          1.0869   -0.0626    4.8402 C.3       1 <0>         0.0000
      9 C9          5.6300   -3.9924    2.6086 C.3       1 <0>         0.0000
     10 N1          1.7380   -1.0876    4.0870 N.pl3     1 <0>         0.0000
     11 O1          4.3526   -1.9405    3.8537 O.2       1 <0>         0.0000
     12 O2          4.5377   -3.2942    2.0011 O.3       1 <0>         0.0000
     13 H1          1.9186   -1.0207   -1.1979 H         1 <0>         0.0000
     14 H2          0.0004    0.0005   -0.0003 H         1 <0>         0.0000
     15 H3          3.7563   -2.0728    0.0710 H         1 <0>         0.0000
     16 H4         -0.0820   -0.0341    2.4686 H         1 <0>         0.0000
     17 H5          0.6674    0.6874    4.1536 H         1 <0>         0.0000
     18 H6          0.2770   -0.5057    5.4383 H         1 <0>         0.0000
     19 H7          1.8151    0.4195    5.5091 H         1 <0>         0.0000
     20 H8          5.9862   -4.7728    1.9317 H         1 <0>         0.0000
     21 H9          5.3009   -4.4356    3.5518 H         1 <0>         0.0000
     22 H10         6.4396   -3.2851    2.8036 H         1 <0>         0.0000
     23 H11         2.1788   -1.8562    4.5539 H         1 <0>         0.0000
@<TRIPOS>BOND
     1    1    2 ar
     2    1    3 ar
     3    1   13 1
     4    2    4 ar
     5    2   14 1
     6    3    5 ar
     7    3   15 1
     8    4    6 ar
     9    4   16 1
    10    5    6 ar
    11    5    7 1
    12    6   10 1
    13    7   11 2
    14    7   12 1
    15    8   10 1
    16    8   17 1
    17    8   18 1
    18    8   19 1
    19    9   12 1
    20    9   20 1
    21    9   21 1
    22    9   22 1
    23   10   23 1
