@<TRIPOS>MOLECULE
*****
   17    18     0     0     0
SMALL
NO_CHARGES

@<TRIPOS>ATOM
      1 C1          0.3680   -0.5924   -0.8344 C.ar      1 <0>         0.0000
      2 C2          1.6789   -0.3987   -1.2869 C.ar      1 <0>         0.0000
      3 C3         -0.4792   -1.5318   -1.4321 C.ar      1 <0>         0.0000
      4 C4          0.4265   -3.5796   -4.1305 C.2       1 <0>         0.0000
      5 C5          2.1953   -1.1400   -2.3595 C.ar      1 <0>         0.0000
      6 C6          1.3591   -2.0858   -2.9698 C.ar      1 <0>         0.0000
      7 C7          0.0674   -2.2466   -2.4907 C.ar      1 <0>         0.0000
      8 C8          3.5551   -0.9320   -2.8214 C.2       1 <0>         0.0000
      9 N1          1.5735   -2.9462   -4.0192 N.2       1 <0>         0.0000
     10 O1          4.0975   -1.5348   -3.7558 O.2       1 <0>         0.0000
     11 O2         -0.5383   -3.2134   -3.2410 O.3       1 <0>         0.0000
     12 O3          4.2099    0.0262   -2.1074 O.3       1 <0>         0.0000
     13 H1          0.0001   -0.0003    0.0001 H         1 <0>         0.0000
     14 H2          2.3008    0.3438   -0.7909 H         1 <0>         0.0000
     15 H3         -1.4946   -1.6887   -1.0903 H         1 <0>         0.0000
     16 H4          0.1596   -4.3506   -4.8377 H         1 <0>         0.0000
     17 H5          5.1302    0.1750   -2.4126 H         1 <0>         0.0000
@<TRIPOS>BOND
     1    1    2 ar
     2    1    3 ar
     3    1   13 1
     4    2    5 ar
     5    2   14 1
     6    3    7 ar
     7    3   15 1
     8    4    9 2
     9    4   11 1
    10    4   16 1
    11    5    6 ar
    12    5    8 1
    13    6    7 ar
    14    6    9 1
    15    7   11 1
    16    8   10 2
    17    8   12 1
    18   12   17 1
