@<TRIPOS>MOLECULE
*****
   30    31     0     0     0
SMALL
NO_CHARGES

@<TRIPOS>ATOM
      1 C1          0.0190    1.5421    6.8693 C.ar      1 <0>         0.0000
      2 C2          1.8851   -1.0363   -0.1124 C.ar      1 <0>         0.0000
      3 C3          0.4908    2.0276    5.6497 C.ar      1 <0>         0.0000
      4 C4          0.1185    0.1824    7.1641 C.ar      1 <0>         0.0000
      5 C5          0.8066   -0.4630    0.5610 C.ar      1 <0>         0.0000
      6 C6          2.9210   -1.6309    0.6081 C.ar      1 <0>         0.0000
      7 C7          1.0623    1.1535    4.7251 C.ar      1 <0>         0.0000
      8 C8          0.6899   -0.6918    6.2395 C.ar      1 <0>         0.0000
      9 C9          0.7638   -0.4841    1.9551 C.ar      1 <0>         0.0000
     10 C10         2.8783   -1.6520    2.0022 C.ar      1 <0>         0.0000
     11 C11         1.1618   -0.2062    5.0199 C.ar      1 <0>         0.0000
     12 C12         1.7997   -1.0786    2.6757 C.ar      1 <0>         0.0000
     13 C13         3.9764   -2.2803    2.7261 C.2       1 <0>         0.0000
     14 C14         5.6300   -3.9924    2.6086 C.3       1 <0>         0.0000
     15 N1          1.7380   -1.0876    4.0870 N.pl3     1 <0>         0.0000
     16 O1          4.3526   -1.9405    3.8537 O.2       1 <0>         0.0000
     17 O2          4.5377   -3.2942    2.0011 O.3       1 <0>         0.0000
     18 H1         -0.4258    2.2227    7.5895 H         1 <0>         0.0000
     19 H2          1.9186   -1.0207   -1.1979 H         1 <0>         0.0000
     20 H3          0.4133    3.0866    5.4203 H         1 <0>         0.0000
     21 H4         -0.2488   -0.1954    8.1135 H         1 <0>         0.0000
     22 H5          0.0004    0.0005   -0.0003 H         1 <0>         0.0000
     23 H6          3.7563   -2.0728    0.0710 H         1 <0>         0.0000
     24 H7          1.4264    1.5433    3.7778 H         1 <0>         0.0000
     25 H8          0.7628   -1.7495    6.4789 H         1 <0>         0.0000
     26 H9         -0.0820   -0.0341    2.4686 H         1 <0>         0.0000
     27 H10         5.9862   -4.7728    1.9317 H         1 <0>         0.0000
     28 H11         5.3009   -4.4356    3.5518 H         1 <0>         0.0000
     29 H12         6.4396   -3.2851    2.8036 H         1 <0>         0.0000
     30 H13         2.2000   -1.8876    4.5071 H         1 <0>         0.0000
@<TRIPOS>BOND
     1    1    4 ar
     2    1    3 ar
     3    1   18 1
     4    2    5 ar
     5    2    6 ar
     6    2   19 1
     7    3    7 ar
     8    3   20 1
     9    4    8 ar
    10    4   21 1
    11    5    9 ar
    12    5   22 1
    13    6   10 ar
    14    6   23 1
    15    7   11 ar
    16    7   24 1
    17    8   11 ar
    18    8   25 1
    19    9   12 ar
    20    9   26 1
    21   10   12 ar
    22   10   13 1
    23   11   15 1
    24   12   15 1
    25   13   16 2
    26   13   17 1
    27   14   17 1
    28   14   27 1
    29   14   28 1
    30   14   29 1
    31   15   30 1
