@<TRIPOS>MOLECULE
*****
   29    30     0     0     0
SMALL
NO_CHARGES

@<TRIPOS>ATOM
      1 C1          3.8817   -3.9376   -0.0482 C.2       1 <0>         0.0000
      2 C2          4.6275   -3.6136   -1.1570 C.2       1 <0>         0.0000
      3 C3          2.4671   -3.5008   -1.5775 C.2       1 <0>         0.0000
      4 C4          0.2496    0.2407   -1.0408 C.3       1 <0>         0.0000
      5 C5         -1.0347    0.4358   -1.8394 C.3       1 <0>         0.0000
      6 C6          1.1124   -0.8742   -1.6266 C.3       1 <0>         0.0000
      7 C7         -1.8168   -0.8660   -1.9617 C.3       1 <0>         0.0000
      8 C8          0.3354   -2.1924   -1.7495 C.3       1 <0>         0.0000
      9 C9         -0.9630   -1.9909   -2.5495 C.3       1 <0>         0.0000
     10 C10         1.2182   -3.2725   -2.3807 C.3       1 <0>         0.0000
     11 N1          2.5377   -3.8657   -0.3166 N.2       1 <0>         0.0000
     12 N2          3.7075   -3.3367   -2.1287 N.pl3     1 <0>         0.0000
     13 O1         -1.7192   -3.1990   -2.5349 O.3       1 <0>         0.0000
     14 H1          4.2442   -4.2202    0.9292 H         1 <0>         0.0000
     15 H2          5.6908   -3.5560   -1.3383 H         1 <0>         0.0000
     16 H3          0.8190    1.1769   -1.0245 H         1 <0>         0.0000
     17 H4          0.0002    0.0003    0.0001 H         1 <0>         0.0000
     18 H5         -1.6577    1.1969   -1.3563 H         1 <0>         0.0000
     19 H6         -0.7900    0.8112   -2.8406 H         1 <0>         0.0000
     20 H7          1.4785   -0.5648   -2.6140 H         1 <0>         0.0000
     21 H8          1.9945   -1.0173   -0.9910 H         1 <0>         0.0000
     22 H9         -2.1956   -1.1666   -0.9760 H         1 <0>         0.0000
     23 H10        -2.7061   -0.7123   -2.5851 H         1 <0>         0.0000
     24 H11         0.0716   -2.5437   -0.7434 H         1 <0>         0.0000
     25 H12        -0.7252   -1.7576   -3.5955 H         1 <0>         0.0000
     26 H13         1.4756   -2.9761   -3.4011 H         1 <0>         0.0000
     27 H14         0.6476   -4.2017   -2.4619 H         1 <0>         0.0000
     28 H15         3.9089   -3.0584   -3.0801 H         1 <0>         0.0000
     29 H16        -2.5076   -3.0380   -3.0761 H         1 <0>         0.0000
@<TRIPOS>BOND
     1    1    2 2
     2    1   11 1
     3    1   14 1
     4    2   12 1
     5    2   15 1
     6    3   10 1
     7    3   11 2
     8    3   12 1
     9    4    5 1
    10    4    6 1
    11    4   16 1
    12    4   17 1
    13    5    7 1
    14    5   18 1
    15    5   19 1
    16    6    8 1
    17    6   20 1
    18    6   21 1
    19    7    9 1
    20    7   22 1
    21    7   23 1
    22    8    9 1
    23    8   10 1
    24    8   24 1
    25    9   13 1
    26    9   25 1
    27   10   26 1
    28   10   27 1
    29   12   28 1
    30   13   29 1
