@<TRIPOS>MOLECULE
*****
   15    15     0     0     0
SMALL
NO_CHARGES

@<TRIPOS>ATOM
      1 C1          0.4477    0.0385    1.1530 C.3       1 <0>         0.0000
      2 C2          0.0455    1.1041   -0.5668 C.3       1 <0>         0.0000
      3 C3         -0.2310   -0.3540   -0.1685 C.3       1 <0>         0.0000
      4 C4          0.5188   -1.3873   -0.9936 C.3       1 <0>         0.0000
      5 O1          0.8382    1.3259    0.6223 O.3       1 <0>         0.0000
      6 O2         -1.6237   -0.7103   -0.0730 O.3       1 <0>         0.0000
      7 O3          0.5684   -2.6032   -0.2662 O.3       1 <0>         0.0000
      8 H1         -0.2205    0.1516    2.0127 H         1 <0>         0.0000
      9 H2          1.3171   -0.5576    1.4455 H         1 <0>         0.0000
     10 H3          0.6329    1.2535   -1.4775 H         1 <0>         0.0000
     11 H4         -0.8278    1.7636   -0.5869 H         1 <0>         0.0000
     12 H5          1.5377   -1.0470   -1.1893 H         1 <0>         0.0000
     13 H6          0.0047   -1.5594   -1.9413 H         1 <0>         0.0000
     14 H7         -1.9936   -0.5538   -0.9509 H         1 <0>         0.0000
     15 H8         -0.3506   -2.8796   -0.1126 H         1 <0>         0.0000
@<TRIPOS>BOND
     1    1    3 1
     2    1    5 1
     3    1    8 1
     4    1    9 1
     5    2    3 1
     6    2    5 1
     7    2   10 1
     8    2   11 1
     9    3    4 1
    10    3    6 1
    11    4    7 1
    12    4   12 1
    13    4   13 1
    14    6   14 1
    15    7   15 1
