@<TRIPOS>MOLECULE
*****
   32    34     0     0     0
SMALL
NO_CHARGES

@<TRIPOS>ATOM
      1 C1         -2.2488   -7.3003   -0.0045 C.ar      1 <0>         0.0000
      2 C2         -2.4286   -7.2320    1.3690 C.ar      1 <0>         0.0000
      3 C3         -1.9734   -6.1366   -0.7206 C.ar      1 <0>         0.0000
      4 C4         -2.3320   -6.0006    2.0146 C.ar      1 <0>         0.0000
      5 C5         -1.5238   -2.6259   -0.1332 C.ar      1 <0>         0.0000
      6 C6         -1.8747   -4.9011   -0.0850 C.ar      1 <0>         0.0000
      7 C7         -2.0573   -4.8318    1.3084 C.ar      1 <0>         0.0000
      8 C8         -1.7017   -2.5585    1.2230 C.ar      1 <0>         0.0000
      9 C9         -2.9793    2.4030    1.7003 C.3       1 <0>         0.0000
     10 C10        -2.6365    1.3959    2.8120 C.3       1 <0>         0.0000
     11 C11        -1.4770    2.4814    1.3764 C.3       1 <0>         0.0000
     12 C12        -1.2963    1.1067    2.0791 C.3       1 <0>         0.0000
     13 C13        -1.3171   -0.0945    1.1420 C.3       1 <0>         0.0000
     14 N1         -1.6082   -3.7925   -0.7976 N.ar      1 <0>         0.0000
     15 N2         -1.9690   -3.6557    1.9539 N.ar      1 <0>         0.0000
     16 N3         -1.5989   -1.3006    1.8556 N.pl3     1 <0>         0.0000
     17 O1         -0.1402    1.0247    2.9396 O.3       1 <0>         0.0000
     18 H1         -2.3213   -8.2533   -0.5195 H         1 <0>         0.0000
     19 H2         -2.6416   -8.1312    1.9388 H         1 <0>         0.0000
     20 H3         -1.8357   -6.2047   -1.7980 H         1 <0>         0.0000
     21 H4         -2.4739   -5.9617    3.0928 H         1 <0>         0.0000
     22 H5         -1.3067   -1.7557   -0.7413 H         1 <0>         0.0000
     23 H6         -3.4410    3.3361    2.0330 H         1 <0>         0.0000
     24 H7         -3.5835    1.9778    0.8911 H         1 <0>         0.0000
     25 H8         -2.5104    1.8565    3.7990 H         1 <0>         0.0000
     26 H9         -3.3286    0.5542    2.9063 H         1 <0>         0.0000
     27 H10        -1.2332    2.5184    0.3108 H         1 <0>         0.0000
     28 H11        -0.9618    3.3075    1.8808 H         1 <0>         0.0000
     29 H12        -0.3463   -0.2155    0.6521 H         1 <0>         0.0000
     30 H13        -2.0868    0.0259    0.3740 H         1 <0>         0.0000
     31 H14        -1.7322   -1.2805    2.8484 H         1 <0>         0.0000
     32 H15         0.6190    1.1906    2.3681 H         1 <0>         0.0000
@<TRIPOS>BOND
     1    1    2 ar
     2    1    3 ar
     3    1   18 1
     4    2    4 ar
     5    2   19 1
     6    3    6 ar
     7    3   20 1
     8    4    7 ar
     9    4   21 1
    10    5    8 ar
    11    5   14 ar
    12    5   22 1
    13    6    7 ar
    14    6   14 ar
    15    7   15 ar
    16    8   15 ar
    17    8   16 1
    18    9   11 1
    19    9   10 1
    20    9   23 1
    21    9   24 1
    22   10   12 1
    23   10   25 1
    24   10   26 1
    25   11   12 1
    26   11   27 1
    27   11   28 1
    28   12   13 1
    29   12   17 1
    30   13   16 1
    31   13   29 1
    32   13   30 1
    33   16   31 1
    34   17   32 1
