@<TRIPOS>MOLECULE
*****
   16    16     0     0     0
SMALL
NO_CHARGES

@<TRIPOS>ATOM
      1 C1          0.7843   -0.5196    0.5399 C.ar      1 <0>         0.0000
      2 C2          1.8830   -1.0424   -0.1354 C.ar      1 <0>         0.0000
      3 C3          0.7101   -0.6752    1.9167 C.ar      1 <0>         0.0000
      4 C4          2.8804   -1.7065    0.5723 C.ar      1 <0>         0.0000
      5 C5          2.7532   -1.8320    1.9483 C.ar      1 <0>         0.0000
      6 N1          1.6847   -1.3190    2.5735 N.ar      1 <0>         0.0000
      7 N2          3.7426   -2.4982    2.7024 N.pl3     1 <0>         0.0000
      8 N3          3.9979   -2.2361   -0.1294 N.pl3     1 <0>         0.0000
      9 O1          1.5720   -1.4388    3.8514 O.3       1 <0>         0.0000
     10 O2          5.0092   -1.5131   -0.2929 O.3       1 <0>         0.0000
     11 O3          3.9393   -3.4107   -0.5645 O.2       1 <0>         0.0000
     12 H1          0.0000    0.0002    0.0000 H         1 <0>         0.0000
     13 H2          1.9486   -0.9246   -1.2142 H         1 <0>         0.0000
     14 H3         -0.1066   -0.3004    2.5156 H         1 <0>         0.0000
     15 H4          4.5143   -2.9207    2.2280 H         1 <0>         0.0000
     16 H5          3.6072   -2.6178    3.6855 H         1 <0>         0.0000
@<TRIPOS>BOND
     1    1    2 ar
     2    1    3 ar
     3    1   12 1
     4    2    4 ar
     5    2   13 1
     6    3    6 ar
     7    3   14 1
     8    4    5 ar
     9    4    8 1
    10    5    6 ar
    11    5    7 1
    12    6    9 1
    13    7   15 1
    14    7   16 1
    15    8   10 1
    16    8   11 2
