@<TRIPOS>MOLECULE
*****
   59    60     0     0     0
SMALL
NO_CHARGES

@<TRIPOS>ATOM
      1 C1          5.6842   -0.9121    0.9314 C.ar      1 <0>         0.0000
      2 C2          5.4019    5.4642    7.4794 C.ar      1 <0>         0.0000
      3 C3          5.6218   -1.0361    2.3149 C.ar      1 <0>         0.0000
      4 C4          5.9705    4.2091    7.2629 C.ar      1 <0>         0.0000
      5 C5          4.8907    0.0515    0.3302 C.ar      1 <0>         0.0000
      6 C6          4.3602    5.6094    8.3957 C.ar      1 <0>         0.0000
      7 C7          4.4556    3.2442    8.8789 C.ar      1 <0>         0.0000
      8 C8          5.4973    3.0990    7.9626 C.ar      1 <0>         0.0000
      9 C9          4.7797   -0.2043    3.0446 C.ar      1 <0>         0.0000
     10 C10         3.8870    4.4994    9.0954 C.ar      1 <0>         0.0000
     11 C11         4.0269    0.7278    2.3487 C.ar      1 <0>         0.0000
     12 C12         3.7823    6.9298    8.6051 C.2       1 <0>         0.0000
     13 C13         2.7441    3.9775    3.9846 C.2       1 <0>         0.0000
     14 C14         4.6807    8.1159    8.4143 C.3       1 <0>         0.0000
     15 C15         3.9186    0.8317   11.8448 C.3       1 <0>         0.0000
     16 C16         2.5630    6.1938    4.7933 C.3       1 <0>         0.0000
     17 C17         3.9498    2.0531    9.6279 C.3       1 <0>         0.0000
     18 C18         3.1016    1.6476    3.0871 C.3       1 <0>         0.0000
     19 C19         3.6791    3.0568    3.2339 C.3       1 <0>         0.0000
     20 C20         4.4606    2.0256   11.0750 C.3       1 <0>         0.0000
     21 C21         5.9422   -0.1485    6.4636 C.3       1 <0>         0.0000
     22 C22         6.0003    1.3693    6.4100 C.3       1 <0>         0.0000
     23 C23         5.8830   -0.7658    5.0752 C.3       1 <0>         0.0000
     24 N1          4.0606    0.8776    1.0056 N.ar      1 <0>         0.0000
     25 O1          2.6140    7.1437    8.9312 O.2       1 <0>         0.0000
     26 O2          1.6411    3.6671    4.4128 O.2       1 <0>         0.0000
     27 O3          2.8681    4.6399    9.9920 O.3       1 <0>         0.0000
     28 O4          6.0684    1.8736    7.7366 O.3       1 <0>         0.0000
     29 O5          4.7091   -0.3183    4.3954 O.3       1 <0>         0.0000
     30 O6          3.3326    5.2048    4.1019 O.3       1 <0>         0.0000
     31 H1          6.3335   -1.5500    0.3427 H         1 <0>         0.0000
     32 H2          5.7791    6.3218    6.9281 H         1 <0>         0.0000
     33 H3          6.2296   -1.7836    2.8169 H         1 <0>         0.0000
     34 H4          6.7817    4.1029    6.5478 H         1 <0>         0.0000
     35 H5          4.9019    0.1878   -0.7462 H         1 <0>         0.0000
     36 H6          4.6891    8.5102    7.3858 H         1 <0>         0.0000
     37 H7          5.7254    7.9189    8.7009 H         1 <0>         0.0000
     38 H8          4.3863    8.9868    9.0267 H         1 <0>         0.0000
     39 H9          2.8240    0.8363   11.8558 H         1 <0>         0.0000
     40 H10         4.2545   -0.1090   11.3970 H         1 <0>         0.0000
     41 H11         4.2685    0.8585   12.8815 H         1 <0>         0.0000
     42 H12         3.1225    7.1317    4.8302 H         1 <0>         0.0000
     43 H13         2.3470    5.8458    5.8066 H         1 <0>         0.0000
     44 H14         1.6245    6.3529    4.2570 H         1 <0>         0.0000
     45 H15         2.8477    2.0424    9.6318 H         1 <0>         0.0000
     46 H16         4.2516    1.1233    9.1190 H         1 <0>         0.0000
     47 H17         2.1345    1.6965    2.5688 H         1 <0>         0.0000
     48 H18         2.8804    1.2336    4.0801 H         1 <0>         0.0000
     49 H19         3.8629    3.4904    2.2438 H         1 <0>         0.0000
     50 H20         4.6292    3.0160    3.7796 H         1 <0>         0.0000
     51 H21         5.5568    1.9904   11.0835 H         1 <0>         0.0000
     52 H22         4.1693    2.9481   11.5918 H         1 <0>         0.0000
     53 H23         6.8095   -0.5390    7.0111 H         1 <0>         0.0000
     54 H24         5.0754   -0.4689    7.0557 H         1 <0>         0.0000
     55 H25         6.8863    1.7073    5.8632 H         1 <0>         0.0000
     56 H26         5.1064    1.7775    5.9277 H         1 <0>         0.0000
     57 H27         5.8417   -1.8577    5.1356 H         1 <0>         0.0000
     58 H28         6.7572   -0.4877    4.4776 H         1 <0>         0.0000
     59 H29         2.5828    5.5656   10.0293 H         1 <0>         0.0000
@<TRIPOS>BOND
     1    1    3 ar
     2    1    5 ar
     3    1   31 1
     4    2    4 ar
     5    2    6 ar
     6    2   32 1
     7    3    9 ar
     8    3   33 1
     9    4    8 ar
    10    4   34 1
    11    5   24 ar
    12    5   35 1
    13    6   10 ar
    14    6   12 1
    15    7    8 ar
    16    7   10 ar
    17    7   17 1
    18    8   28 1
    19    9   11 ar
    20    9   29 1
    21   10   27 1
    22   11   18 1
    23   11   24 ar
    24   12   14 1
    25   12   25 2
    26   13   19 1
    27   13   26 2
    28   13   30 1
    29   14   36 1
    30   14   37 1
    31   14   38 1
    32   15   20 1
    33   15   39 1
    34   15   40 1
    35   15   41 1
    36   16   30 1
    37   16   42 1
    38   16   43 1
    39   16   44 1
    40   17   20 1
    41   17   45 1
    42   17   46 1
    43   18   19 1
    44   18   47 1
    45   18   48 1
    46   19   49 1
    47   19   50 1
    48   20   51 1
    49   20   52 1
    50   21   22 1
    51   21   23 1
    52   21   53 1
    53   21   54 1
    54   22   28 1
    55   22   55 1
    56   22   56 1
    57   23   29 1
    58   23   57 1
    59   23   58 1
    60   27   59 1
