@<TRIPOS>MOLECULE
*****
   36    38     0     0     0
SMALL
NO_CHARGES

@<TRIPOS>ATOM
      1 C1          2.5883    3.7261    3.6478 C.2       1 <0>         0.0000
      2 C2          2.8564    2.5735    4.3561 C.2       1 <0>         0.0000
      3 C3         -2.8239    1.0953    2.2516 C.ar      1 <0>         0.0000
      4 C4         -2.8879   -0.0828    1.5131 C.ar      1 <0>         0.0000
      5 C5         -1.6689    1.8439    2.0873 C.ar      1 <0>         0.0000
      6 C6          0.5259    3.1126    4.0722 C.2       1 <0>         0.0000
      7 C7         -0.8108    0.3181    0.6438 C.ar      1 <0>         0.0000
      8 C8         -3.9491    1.5763    3.1179 C.3       1 <0>         0.0000
      9 C9         -4.0748   -1.0028    1.6234 C.3       1 <0>         0.0000
     10 C10        -4.9611    0.4772    3.4426 C.3       1 <0>         0.0000
     11 C11        -5.3165   -0.3142    2.1880 C.3       1 <0>         0.0000
     12 C12        -2.0095    4.3010    2.1707 C.3       1 <0>         0.0000
     13 C13        -0.9751    3.1071    4.1080 C.3       1 <0>         0.0000
     14 N1          1.2524    4.0366    3.4836 N.2       1 <0>         0.0000
     15 N2         -1.8815   -0.4956    0.7072 N.ar      1 <0>         0.0000
     16 N3         -0.6406    1.4822    1.2939 N.ar      1 <0>         0.0000
     17 N4          0.2463   -0.0966   -0.1951 N.pl3     1 <0>         0.0000
     18 N5         -1.5480    3.0738    2.7806 N.pl3     1 <0>         0.0000
     19 S1          1.3836    1.8417    4.8428 S.3       1 <0>         0.0000
     20 H1          3.3375    4.3825    3.2260 H         1 <0>         0.0000
     21 H2          3.8156    2.1421    4.6046 H         1 <0>         0.0000
     22 H3         -3.5669    1.9738    4.0655 H         1 <0>         0.0000
     23 H4         -4.4629    2.3926    2.5946 H         1 <0>         0.0000
     24 H5         -4.3084   -1.4216    0.6378 H         1 <0>         0.0000
     25 H6         -3.7931   -1.8382    2.2761 H         1 <0>         0.0000
     26 H7         -4.5436   -0.2031    4.1958 H         1 <0>         0.0000
     27 H8         -5.8622    0.9233    3.8782 H         1 <0>         0.0000
     28 H9         -5.7435    0.3616    1.4361 H         1 <0>         0.0000
     29 H10        -6.0807   -1.0648    2.4186 H         1 <0>         0.0000
     30 H11        -1.8374    5.1437    2.8453 H         1 <0>         0.0000
     31 H12        -3.0793    4.2364    1.9540 H         1 <0>         0.0000
     32 H13        -1.4730    4.4834    1.2357 H         1 <0>         0.0000
     33 H14        -1.3450    2.2344    4.6571 H         1 <0>         0.0000
     34 H15        -1.3593    3.9979    4.6161 H         1 <0>         0.0000
     35 H16         0.1811   -0.9788   -0.6598 H         1 <0>         0.0000
     36 H17         1.0795    0.4535   -0.2353 H         1 <0>         0.0000
@<TRIPOS>BOND
     1    1    2 2
     2    1   14 1
     3    1   20 1
     4    2   19 1
     5    2   21 1
     6    3    4 ar
     7    3    5 ar
     8    3    8 1
     9    4    9 1
    10    4   15 ar
    11    5   16 ar
    12    5   18 1
    13    6   13 1
    14    6   14 2
    15    6   19 1
    16    7   15 ar
    17    7   16 ar
    18    7   17 1
    19    8   10 1
    20    8   22 1
    21    8   23 1
    22    9   11 1
    23    9   24 1
    24    9   25 1
    25   10   11 1
    26   10   26 1
    27   10   27 1
    28   11   28 1
    29   11   29 1
    30   12   18 1
    31   12   30 1
    32   12   31 1
    33   12   32 1
    34   13   18 1
    35   13   33 1
    36   13   34 1
    37   17   35 1
    38   17   36 1
