@<TRIPOS>MOLECULE
*****
   43    44     0     0     0
SMALL
NO_CHARGES

@<TRIPOS>ATOM
      1 C1          3.8502    3.5940   -7.9079 C.2       1 <0>         0.0000
      2 C2          2.7362    4.5487   -6.2658 C.2       1 <0>         0.0000
      3 C3          2.0249    2.2173   -5.3109 C.2       1 <0>         0.0000
      4 C4         -0.4154    1.9268   -0.4880 C.3       1 <0>         0.0000
      5 C5         -1.3462    2.2516   -1.6529 C.3       1 <0>         0.0000
      6 C6          0.7967    1.1193   -0.9438 C.3       1 <0>         0.0000
      7 C7         -0.6026    2.9499   -2.7902 C.3       1 <0>         0.0000
      8 C8          1.5427    1.8157   -2.0806 C.3       1 <0>         0.0000
      9 C9          0.6066    2.1298   -3.2529 C.3       1 <0>         0.0000
     10 C10         4.6929    3.4757   -9.1335 C.3       1 <0>         0.0000
     11 C11         4.8786    6.9264   -5.8091 C.3       1 <0>         0.0000
     12 C12         5.7154    7.5781   -8.0940 C.3       1 <0>         0.0000
     13 C13         5.1293    6.4653   -7.2375 C.3       1 <0>         0.0000
     14 N1          3.3771    2.5709   -7.2577 N.2       1 <0>         0.0000
     15 N2          3.5121    4.7825   -7.3805 N.am      1 <0>         0.0000
     16 N3          2.6580    3.1101   -6.2002 N.am      1 <0>         0.0000
     17 N4          1.3352    2.8599   -4.2885 N.am      1 <0>         0.0000
     18 N5          3.8521    6.0242   -7.8347 N.3       1 <0>         0.0000
     19 O1          2.2288    5.3601   -5.5059 O.2       1 <0>         0.0000
     20 O2          2.0810    0.9918   -5.4312 O.2       1 <0>         0.0000
     21 H1         -0.9644    1.3674    0.2777 H         1 <0>         0.0000
     22 H2         -0.0768    2.8601   -0.0213 H         1 <0>         0.0000
     23 H3         -1.7986    1.3252   -2.0280 H         1 <0>         0.0000
     24 H4         -2.1661    2.8888   -1.3029 H         1 <0>         0.0000
     25 H5          1.4758    0.9650   -0.0977 H         1 <0>         0.0000
     26 H6          0.4697    0.1265   -1.2768 H         1 <0>         0.0000
     27 H7         -1.2935    3.1078   -3.6272 H         1 <0>         0.0000
     28 H8         -0.2757    3.9411   -2.4500 H         1 <0>         0.0000
     29 H9          1.9919    2.7424   -1.7005 H         1 <0>         0.0000
     30 H10         2.3651    1.1729   -2.4169 H         1 <0>         0.0000
     31 H11         0.2716    1.2063   -3.7159 H         1 <0>         0.0000
     32 H12         4.0586    3.4665  -10.0202 H         1 <0>         0.0000
     33 H13         5.2727    2.5526   -9.0978 H         1 <0>         0.0000
     34 H14         5.3810    4.3197   -9.1935 H         1 <0>         0.0000
     35 H15         4.1960    7.7822   -5.7897 H         1 <0>         0.0000
     36 H16         4.4406    6.1265   -5.2016 H         1 <0>         0.0000
     37 H17         5.8154    7.2290   -5.3284 H         1 <0>         0.0000
     38 H18         5.0469    8.4457   -8.1139 H         1 <0>         0.0000
     39 H19         5.8629    7.2400   -9.1250 H         1 <0>         0.0000
     40 H20         6.6821    7.9164   -7.7043 H         1 <0>         0.0000
     41 H21         5.8137    5.6099   -7.2324 H         1 <0>         0.0000
     42 H22         1.3379    3.8729   -4.2604 H         1 <0>         0.0000
     43 H23         3.9805    6.0482   -8.8681 H         1 <0>         0.0000
@<TRIPOS>BOND
     1    1   10 1
     2    1   14 2
     3    1   15 1
     4    2   15 am
     5    2   16 am
     6    2   19 2
     7    3   16 am
     8    3   17 am
     9    3   20 2
    10    4    6 1
    11    4    5 1
    12    4   21 1
    13    4   22 1
    14    5    7 1
    15    5   23 1
    16    5   24 1
    17    6    8 1
    18    6   25 1
    19    6   26 1
    20    7    9 1
    21    7   27 1
    22    7   28 1
    23    8    9 1
    24    8   29 1
    25    8   30 1
    26    9   17 1
    27    9   31 1
    28   10   32 1
    29   10   33 1
    30   10   34 1
    31   11   13 1
    32   11   35 1
    33   11   36 1
    34   11   37 1
    35   12   13 1
    36   12   38 1
    37   12   39 1
    38   12   40 1
    39   13   18 1
    40   13   41 1
    41   14   16 1
    42   15   18 1
    43   17   42 1
    44   18   43 1
