@<TRIPOS>MOLECULE
*****
   21    21     0     0     0
SMALL
NO_CHARGES

@<TRIPOS>ATOM
      1 C1          1.8851   -1.0363   -0.1124 C.ar      1 <0>         0.0000
      2 C2          0.8066   -0.4630    0.5610 C.ar      1 <0>         0.0000
      3 C3          1.7997   -1.0786    2.6757 C.ar      1 <0>         0.0000
      4 C4          2.9210   -1.6309    0.6081 C.ar      1 <0>         0.0000
      5 C5          2.8783   -1.6520    2.0022 C.ar      1 <0>         0.0000
      6 C6          0.7638   -0.4841    1.9551 C.ar      1 <0>         0.0000
      7 C7          4.0622   -2.2363   -0.1438 C.3       1 <0>         0.0000
      8 C8          3.7250   -3.5991   -0.7490 C.3       1 <0>         0.0000
      9 N1          3.9220   -2.2555    2.7566 N.pl3     1 <0>         0.0000
     10 O1          3.8340   -3.4718    3.0475 O.3       1 <0>         0.0000
     11 O2          4.8990   -1.5531    3.1088 O.2       1 <0>         0.0000
     12 O3          3.3291   -4.4955    0.2814 O.3       1 <0>         0.0000
     13 Br1        -0.6972    0.2939    2.8669 Br        1 <0>         0.0000
     14 H1          1.9088   -1.0140   -1.1988 H         1 <0>         0.0000
     15 H2          0.0083   -0.0028   -0.0156 H         1 <0>         0.0000
     16 H3          1.7669   -1.0973    3.7633 H         1 <0>         0.0000
     17 H4          4.3876   -1.5546   -0.9435 H         1 <0>         0.0000
     18 H5          4.9230   -2.3539    0.5304 H         1 <0>         0.0000
     19 H6          2.8883   -3.5018   -1.4482 H         1 <0>         0.0000
     20 H7          4.5803   -4.0284   -1.2810 H         1 <0>         0.0000
     21 H8          3.1260   -5.3422   -0.1476 H         1 <0>         0.0000
@<TRIPOS>BOND
     1    1    2 ar
     2    1    4 ar
     3    1   14 1
     4    2    6 ar
     5    2   15 1
     6    3    5 ar
     7    3    6 ar
     8    3   16 1
     9    4    5 ar
    10    4    7 1
    11    5    9 1
    12    6   13 1
    13    7    8 1
    14    7   17 1
    15    7   18 1
    16    8   12 1
    17    8   19 1
    18    8   20 1
    19    9   10 1
    20    9   11 2
    21   12   21 1
