@<TRIPOS>MOLECULE
*****
   27    29     0     0     0
SMALL
NO_CHARGES

@<TRIPOS>ATOM
      1 C1         -4.0902    4.2376   -1.4936 C.ar      1 <0>         0.0000
      2 C2         -2.7151    4.3237   -1.3301 C.ar      1 <0>         0.0000
      3 C3         -0.5812    3.2417   -0.8037 C.ar      1 <0>         0.0000
      4 C4         -0.5469    0.8976   -0.2738 C.ar      1 <0>         0.0000
      5 C5         -4.6804    3.0058   -1.2959 C.ar      1 <0>         0.0000
      6 C6         -4.1001   -3.1950    0.3088 C.2       1 <0>         0.0000
      7 C7         -1.9747    3.1875   -0.9770 C.ar      1 <0>         0.0000
      8 C8         -1.9323    0.8440   -0.4461 C.ar      1 <0>         0.0000
      9 C9         -2.6683    1.9725   -0.7968 C.ar      1 <0>         0.0000
     10 C10         0.1298    2.0977   -0.4527 C.ar      1 <0>         0.0000
     11 C11        -4.1500   -2.1915    1.2435 C.2       1 <0>         0.0000
     12 C12        -2.6169   -0.4720   -0.2416 C.3       1 <0>         0.0000
     13 N1         -4.0027    1.8858   -0.9548 N.ar      1 <0>         0.0000
     14 N2         -4.8061   -4.2765    0.7576 N.2       1 <0>         0.0000
     15 N3         -5.2995   -3.9742    1.9535 N.2       1 <0>         0.0000
     16 N4         -4.9051   -2.7237    2.2430 N.pl3     1 <0>         0.0000
     17 S1         -3.4887   -0.5573    1.3497 S.3       1 <0>         0.0000
     18 Br1         2.0027    2.1765   -0.2204 Br        1 <0>         0.0000
     19 H1         -4.6781    5.1059   -1.7669 H         1 <0>         0.0000
     20 H2         -2.2239    5.2824   -1.4792 H         1 <0>         0.0000
     21 H3         -0.0558    4.1845   -0.9463 H         1 <0>         0.0000
     22 H4         -0.0049   -0.0046    0.0012 H         1 <0>         0.0000
     23 H5         -5.7517    2.8778   -1.4110 H         1 <0>         0.0000
     24 H6         -3.6007   -3.1989   -0.6486 H         1 <0>         0.0000
     25 H7         -3.3393   -0.6603   -1.0467 H         1 <0>         0.0000
     26 H8         -1.8891   -1.2929   -0.2838 H         1 <0>         0.0000
     27 H9         -5.1844   -2.3094    3.1239 H         1 <0>         0.0000
@<TRIPOS>BOND
     1    1    2 ar
     2    1    5 ar
     3    1   19 1
     4    2    7 ar
     5    2   20 1
     6    3    7 ar
     7    3   10 ar
     8    3   21 1
     9    4    8 ar
    10    4   10 ar
    11    4   22 1
    12    5   13 ar
    13    5   23 1
    14    6   11 2
    15    6   14 1
    16    6   24 1
    17    7    9 ar
    18    8    9 ar
    19    8   12 1
    20    9   13 ar
    21   10   18 1
    22   11   16 1
    23   11   17 1
    24   12   17 1
    25   12   25 1
    26   12   26 1
    27   14   15 2
    28   15   16 1
    29   16   27 1
