@<TRIPOS>MOLECULE
*****
   22    22     0     0     0
SMALL
NO_CHARGES

@<TRIPOS>ATOM
      1 C1         -0.5201   -1.4401    1.2486 C.2       1 <0>         0.0000
      2 C2         -1.7391    0.6745    0.6469 C.2       1 <0>         0.0000
      3 C3         -0.3860   -0.5485   -1.1406 C.3       1 <0>         0.0000
      4 C4         -0.6541   -0.2843    0.3311 C.3       1 <0>         0.0000
      5 C5          0.6156    0.2536   -0.3516 C.3       1 <0>         0.0000
      6 C6          1.9482   -0.3909   -0.0524 C.3       1 <0>         0.0000
      7 C7          0.7259    1.7287   -0.6556 C.3       1 <0>         0.0000
      8 N1         -0.2864   -1.0859    2.5563 N.am      1 <0>         0.0000
      9 O1         -0.6287   -2.5998    0.8577 O.2       1 <0>         0.0000
     10 O2         -1.8349    1.3080    1.6875 O.2       1 <0>         0.0000
     11 O3         -2.6209    0.7547   -0.3794 O.3       1 <0>         0.0000
     12 H1         -0.1189   -1.5553   -1.4442 H         1 <0>         0.0000
     13 H2         -0.9952   -0.0352   -1.8770 H         1 <0>         0.0000
     14 H3          2.5851    0.2882    0.5235 H         1 <0>         0.0000
     15 H4          2.4703   -0.6468   -0.9798 H         1 <0>         0.0000
     16 H5          1.8116   -1.3085    0.5288 H         1 <0>         0.0000
     17 H6          1.4835    2.1985   -0.0202 H         1 <0>         0.0000
     18 H7         -0.2300    2.2320   -0.4787 H         1 <0>         0.0000
     19 H8          1.0088    1.8875   -1.7012 H         1 <0>         0.0000
     20 H9         -0.1824   -1.8204    3.2486 H         1 <0>         0.0000
     21 H10        -0.2138   -0.1193    2.8570 H         1 <0>         0.0000
     22 H11        -3.3489    1.3839   -0.1886 H         1 <0>         0.0000
@<TRIPOS>BOND
     1    1    4 1
     2    1    8 am
     3    1    9 2
     4    2    4 1
     5    2   10 2
     6    2   11 1
     7    3    4 1
     8    3    5 1
     9    3   12 1
    10    3   13 1
    11    4    5 1
    12    5    6 1
    13    5    7 1
    14    6   14 1
    15    6   15 1
    16    6   16 1
    17    7   17 1
    18    7   18 1
    19    7   19 1
    20    8   20 1
    21    8   21 1
    22   11   22 1
