@<TRIPOS>MOLECULE
*****
   28    28     0     0     0
SMALL
NO_CHARGES

@<TRIPOS>ATOM
      1 C1          1.8851   -1.0358   -0.1124 C.ar      1 <0>         0.0000
      2 C2          3.0542   -1.2494    0.6180 C.ar      1 <0>         0.0000
      3 C3          0.6734   -0.8438    0.5512 C.ar      1 <0>         0.0000
      4 C4          3.0114   -1.2708    2.0120 C.ar      1 <0>         0.0000
      5 C5          0.6307   -0.8651    1.9452 C.ar      1 <0>         0.0000
      6 C6          1.7997   -1.0786    2.6757 C.ar      1 <0>         0.0000
      7 C7          1.7548   -1.1014    4.1663 C.3       1 <0>         0.0000
      8 C8          2.2558    2.0685    8.5507 C.3       1 <0>         0.0000
      9 C9          1.9709    0.2719    4.8078 C.3       1 <0>         0.0000
     10 C10         2.2288    1.9037    7.0437 C.3       1 <0>         0.0000
     11 O1          3.1205   -0.5532    7.0056 O.2       1 <0>         0.0000
     12 O2          0.6268   -0.1615    7.0073 O.2       1 <0>         0.0000
     13 O3          1.0152    1.6658    9.1168 O.3       1 <0>         0.0000
     14 S1          1.9625    0.2099    6.5721 S.o2      1 <0>         0.0000
     15 H1          1.9180   -1.0205   -1.1979 H         1 <0>         0.0000
     16 H2          3.9975   -1.4001    0.1016 H         1 <0>         0.0000
     17 H3         -0.2371   -0.6785   -0.0174 H         1 <0>         0.0000
     18 H4          3.9273   -1.4377    2.5728 H         1 <0>         0.0000
     19 H5         -0.3179   -0.7143    2.4538 H         1 <0>         0.0000
     20 H6          2.5369   -1.7812    4.5464 H         1 <0>         0.0000
     21 H7          0.8018   -1.5235    4.5296 H         1 <0>         0.0000
     22 H8          3.0425    1.4466    8.9892 H         1 <0>         0.0000
     23 H9          2.4405    3.1081    8.8382 H         1 <0>         0.0000
     24 H10         2.9488    0.6762    4.5270 H         1 <0>         0.0000
     25 H11         1.2022    0.9905    4.5076 H         1 <0>         0.0000
     26 H12         3.1745    2.2079    6.5859 H         1 <0>         0.0000
     27 H13         1.4096    2.4800    6.6048 H         1 <0>         0.0000
     28 H14         1.0914    1.7926   10.0762 H         1 <0>         0.0000
@<TRIPOS>BOND
     1    1    3 ar
     2    1    2 ar
     3    1   15 1
     4    2    4 ar
     5    2   16 1
     6    3    5 ar
     7    3   17 1
     8    4    6 ar
     9    4   18 1
    10    5    6 ar
    11    5   19 1
    12    6    7 1
    13    7    9 1
    14    7   20 1
    15    7   21 1
    16    8   10 1
    17    8   13 1
    18    8   22 1
    19    8   23 1
    20    9   14 1
    21    9   24 1
    22    9   25 1
    23   10   14 1
    24   10   26 1
    25   10   27 1
    26   11   14 2
    27   12   14 2
    28   13   28 1
