@<TRIPOS>MOLECULE
*****
   25    24     0     0     0
SMALL
NO_CHARGES

@<TRIPOS>ATOM
      1 C1         -3.4018   -3.4749   -0.4298 C.2       1 <0>         0.0000
      2 C2         -3.1282   -0.4571    2.0833 C.2       1 <0>         0.0000
      3 C3         -3.8130   -3.9313   -1.7902 C.3       1 <0>         0.0000
      4 C4         -4.3776    0.3020    1.7815 C.3       1 <0>         0.0000
      5 C5         -0.2225   -1.0687   -0.0956 C.3       1 <0>         0.0000
      6 C6         -1.4205   -3.0307    1.0054 C.3       1 <0>         0.0000
      7 C7         -1.1456   -1.5255    1.0297 C.3       1 <0>         0.0000
      8 N1         -2.0338   -3.4432   -0.2365 N.am      1 <0>         0.0000
      9 N2         -2.3924   -0.7908    0.9645 N.am      1 <0>         0.0000
     10 O1         -4.2598   -3.1703    0.3904 O.2       1 <0>         0.0000
     11 O2         -2.8480   -0.7214    3.2466 O.2       1 <0>         0.0000
     12 H1         -3.9532   -5.0229   -1.8431 H         1 <0>         0.0000
     13 H2         -4.7760   -3.4985   -2.1057 H         1 <0>         0.0000
     14 H3         -3.1077   -3.6901   -2.6015 H         1 <0>         0.0000
     15 H4         -5.2433   -0.3603    1.6199 H         1 <0>         0.0000
     16 H5         -4.6727    0.9709    2.6058 H         1 <0>         0.0000
     17 H6         -4.3341    0.9452    0.8881 H         1 <0>         0.0000
     18 H7         -0.6459   -1.2801   -1.0836 H         1 <0>         0.0000
     19 H8         -0.0556    0.0129   -0.0404 H         1 <0>         0.0000
     20 H9          0.7514   -1.5642   -0.0263 H         1 <0>         0.0000
     21 H10        -2.0863   -3.3044    1.8317 H         1 <0>         0.0000
     22 H11        -0.4859   -3.5854    1.1424 H         1 <0>         0.0000
     23 H12        -0.6624   -1.2844    1.9838 H         1 <0>         0.0000
     24 H13        -1.4305   -3.7231   -1.0040 H         1 <0>         0.0000
     25 H14        -2.7405   -0.5086    0.0549 H         1 <0>         0.0000
@<TRIPOS>BOND
     1    1    3 1
     2    1    8 am
     3    1   10 2
     4    2    4 1
     5    2    9 am
     6    2   11 2
     7    3   12 1
     8    3   13 1
     9    3   14 1
    10    4   15 1
    11    4   16 1
    12    4   17 1
    13    5    7 1
    14    5   18 1
    15    5   19 1
    16    5   20 1
    17    6    7 1
    18    6    8 1
    19    6   21 1
    20    6   22 1
    21    7    9 1
    22    7   23 1
    23    8   24 1
    24    9   25 1
