@<TRIPOS>MOLECULE
*****
   18    17     0     0     0
SMALL
NO_CHARGES

@<TRIPOS>ATOM
      1 C1          0.5967    0.3636    0.7781 C.2       1 <0>         0.0000
      2 C2          2.3050    1.7693    1.9201 C.3       1 <0>         0.0000
      3 C3         -2.6518   -0.9490   -2.0250 C.3       1 <0>         0.0000
      4 C4         -0.7743   -1.1740   -0.6282 C.3       1 <0>         0.0000
      5 N1          1.9059    0.8186    0.9090 N.am      1 <0>         0.0000
      6 N2          0.4791   -0.5445   -0.2710 N.am      1 <0>         0.0000
      7 O1         -0.3370    0.7187    1.4964 O.2       1 <0>         0.0000
      8 O2         -1.4312   -0.3622   -1.5942 O.3       1 <0>         0.0000
      9 H1          2.2550    2.7875    1.5069 H         1 <0>         0.0000
     10 H2          1.6290    1.6908    2.7843 H         1 <0>         0.0000
     11 H3          3.3353    1.5536    2.2397 H         1 <0>         0.0000
     12 H4         -3.1278   -0.3002   -2.7644 H         1 <0>         0.0000
     13 H5         -3.3135   -1.0875   -1.1664 H         1 <0>         0.0000
     14 H6         -2.4388   -1.9198   -2.4788 H         1 <0>         0.0000
     15 H7         -0.5451   -2.1583   -1.0487 H         1 <0>         0.0000
     16 H8         -1.3964   -1.2773    0.2672 H         1 <0>         0.0000
     17 H9          2.6207    0.4326    0.3001 H         1 <0>         0.0000
     18 H10         1.3000   -0.7542   -0.8300 H         1 <0>         0.0000
@<TRIPOS>BOND
     1    1    5 am
     2    1    6 am
     3    1    7 2
     4    2    5 1
     5    2    9 1
     6    2   10 1
     7    2   11 1
     8    3    8 1
     9    3   12 1
    10    3   13 1
    11    3   14 1
    12    4    6 1
    13    4    8 1
    14    4   15 1
    15    4   16 1
    16    5   17 1
    17    6   18 1
