@<TRIPOS>MOLECULE
*****
   26    26     0     0     0
SMALL
NO_CHARGES

@<TRIPOS>ATOM
      1 C1          1.8840   -1.0347   -0.1125 C.ar      1 <0>         0.0000
      2 C2          2.4805   -0.0081    0.6196 C.ar      1 <0>         0.0000
      3 C3          1.2454   -2.0833    0.5495 C.ar      1 <0>         0.0000
      4 C4          2.4383   -0.0300    2.0137 C.ar      1 <0>         0.0000
      5 C5          1.2032   -2.1053    1.9436 C.ar      1 <0>         0.0000
      6 C6          1.7997   -1.0786    2.6757 C.ar      1 <0>         0.0000
      7 C7          1.1097    0.5384    6.9608 C.2       1 <0>         0.0000
      8 C8          0.9886    0.2875    8.4273 C.3       1 <0>         0.0000
      9 C9          0.5163   -0.3831    4.7289 C.3       1 <0>         0.0000
     10 C10         1.7548   -1.1014    4.1663 C.3       1 <0>         0.0000
     11 N1          0.5178   -0.4308    6.1738 N.am      1 <0>         0.0000
     12 O1          1.6960    1.5392    6.5654 O.2       1 <0>         0.0000
     13 O2          1.7466   -2.4628    4.6177 O.3       1 <0>         0.0000
     14 H1          1.9179   -1.0185   -1.1979 H         1 <0>         0.0000
     15 H2          2.9787    0.8079    0.1046 H         1 <0>         0.0000
     16 H3          0.7818   -2.8833   -0.0203 H         1 <0>         0.0000
     17 H4          2.9057    0.7742    2.5758 H         1 <0>         0.0000
     18 H5          0.7033   -2.9262    2.4509 H         1 <0>         0.0000
     19 H6          1.8296   -0.3040    8.8236 H         1 <0>         0.0000
     20 H7          0.9861    1.2198    9.0146 H         1 <0>         0.0000
     21 H8          0.0812   -0.2537    8.7395 H         1 <0>         0.0000
     22 H9         -0.4002   -0.8607    4.3657 H         1 <0>         0.0000
     23 H10         0.4977    0.6670    4.4171 H         1 <0>         0.0000
     24 H11         2.6666   -0.6460    4.5906 H         1 <0>         0.0000
     25 H12         0.0621   -1.2139    6.6321 H         1 <0>         0.0000
     26 H13         1.7173   -2.4238    5.5836 H         1 <0>         0.0000
@<TRIPOS>BOND
     1    1    3 ar
     2    1    2 ar
     3    1   14 1
     4    2    4 ar
     5    2   15 1
     6    3    5 ar
     7    3   16 1
     8    4    6 ar
     9    4   17 1
    10    5    6 ar
    11    5   18 1
    12    6   10 1
    13    7    8 1
    14    7   11 am
    15    7   12 2
    16    8   19 1
    17    8   20 1
    18    8   21 1
    19    9   10 1
    20    9   11 1
    21    9   22 1
    22    9   23 1
    23   10   13 1
    24   10   24 1
    25   11   25 1
    26   13   26 1
