@<TRIPOS>MOLECULE
*****
   36    36     0     0     0
SMALL
NO_CHARGES

@<TRIPOS>ATOM
      1 C1          1.5113    1.4420   -0.4416 C.2       1 <0>         0.0000
      2 C2          2.8548    3.0982   -0.9897 C.2       1 <0>         0.0000
      3 C3          0.8443    4.5122   -1.8907 C.2       1 <0>         0.0000
      4 C4          1.0837    0.1133    0.0858 C.3       1 <0>         0.0000
      5 C5          0.8718    7.8445   -0.5018 C.3       1 <0>         0.0000
      6 C6          2.5236    7.6621   -3.0454 C.3       1 <0>         0.0000
      7 C7          0.6437    6.4711   -4.1825 C.3       1 <0>         0.0000
      8 C8          4.4776    0.3400   -1.0721 C.3       1 <0>         0.0000
      9 C9          0.3098    7.5076   -1.8788 C.3       1 <0>         0.0000
     10 C10         1.2903    6.7722   -2.8234 C.3       1 <0>         0.0000
     11 N1          0.6884    2.3168   -0.9423 N.2       1 <0>         0.0000
     12 N2          2.7957    1.8362   -0.4395 N.am      1 <0>         0.0000
     13 N3          1.4805    3.3953   -1.3106 N.am      1 <0>         0.0000
     14 N4          1.7268    5.5354   -2.2195 N.am      1 <0>         0.0000
     15 N5          3.8807    1.1431    0.0147 N.3       1 <0>         0.0000
     16 O1          3.8340    3.8070   -1.1689 O.2       1 <0>         0.0000
     17 O2         -0.3717    4.5713   -2.0837 O.2       1 <0>         0.0000
     18 H1          1.1067   -0.6278   -0.7136 H         1 <0>         0.0000
     19 H2          0.0703    0.1802    0.4834 H         1 <0>         0.0000
     20 H3          1.7543   -0.2015    0.8861 H         1 <0>         0.0000
     21 H4          1.7785    8.4516   -0.5757 H         1 <0>         0.0000
     22 H5          0.1415    8.3815    0.1108 H         1 <0>         0.0000
     23 H6          1.1367    6.9225    0.0266 H         1 <0>         0.0000
     24 H7          3.0156    7.9006   -2.0951 H         1 <0>         0.0000
     25 H8          3.2667    7.1597   -3.6758 H         1 <0>         0.0000
     26 H9          2.2520    8.6057   -3.5316 H         1 <0>         0.0000
     27 H10        -0.2426    5.8362   -4.0641 H         1 <0>         0.0000
     28 H11         0.3087    7.3855   -4.6842 H         1 <0>         0.0000
     29 H12         1.3414    5.9512   -4.8481 H         1 <0>         0.0000
     30 H13         3.7191   -0.3420   -1.4839 H         1 <0>         0.0000
     31 H14         4.8387    1.0095   -1.8667 H         1 <0>         0.0000
     32 H15         5.3200   -0.2454   -0.6750 H         1 <0>         0.0000
     33 H16        -0.5942    6.9006   -1.7413 H         1 <0>         0.0000
     34 H17        -0.0139    8.4454   -2.3495 H         1 <0>         0.0000
     35 H18         2.7138    5.4082   -2.0280 H         1 <0>         0.0000
     36 H19         4.6321    1.7701    0.3714 H         1 <0>         0.0000
@<TRIPOS>BOND
     1    1    4 1
     2    1   11 2
     3    1   12 1
     4    2   12 am
     5    2   13 am
     6    2   16 2
     7    3   13 am
     8    3   14 am
     9    3   17 2
    10    4   18 1
    11    4   19 1
    12    4   20 1
    13    5    9 1
    14    5   21 1
    15    5   22 1
    16    5   23 1
    17    6   10 1
    18    6   24 1
    19    6   25 1
    20    6   26 1
    21    7   10 1
    22    7   27 1
    23    7   28 1
    24    7   29 1
    25    8   15 1
    26    8   30 1
    27    8   31 1
    28    8   32 1
    29    9   10 1
    30    9   33 1
    31    9   34 1
    32   10   14 1
    33   11   13 1
    34   12   15 1
    35   14   35 1
    36   15   36 1
