@<TRIPOS>MOLECULE
*****
   49    49     0     0     0
SMALL
NO_CHARGES

@<TRIPOS>ATOM
      1 C1         -0.1935    1.5192   -1.3088 C.2       1 <0>         0.0000
      2 C2         -1.9210   -1.1584   -1.9297 C.2       1 <0>         0.0000
      3 C3          1.5609   -0.2483    0.5647 C.3       1 <0>         0.0000
      4 C4         -0.5130    0.7287    1.0431 C.3       1 <0>         0.0000
      5 C5          0.5796   -0.7106   -0.4884 C.3       1 <0>         0.0000
      6 C6         -0.4906    0.3482   -0.4235 C.3       1 <0>         0.0000
      7 C7         -0.3147    4.3257   -1.7620 C.3       1 <0>         0.0000
      8 C8          1.8325    4.4412   -0.4637 C.3       1 <0>         0.0000
      9 C9          1.7416    3.1538   -2.6183 C.3       1 <0>         0.0000
     10 C10        -2.7462   -3.7587   -2.7861 C.3       1 <0>         0.0000
     11 C11        -4.9421   -2.6757   -3.3467 C.3       1 <0>         0.0000
     12 C12        -2.8489   -1.9422   -4.5251 C.3       1 <0>         0.0000
     13 C13         0.9615    3.5796   -1.3753 C.3       1 <0>         0.0000
     14 C14        -3.4355   -2.4640   -3.2142 C.3       1 <0>         0.0000
     15 N1         -1.7974   -0.1522   -0.8828 N.am      1 <0>         0.0000
     16 O1         -0.6106    1.6362   -2.4531 O.2       1 <0>         0.0000
     17 O2         -0.9667   -1.6661   -2.5081 O.2       1 <0>         0.0000
     18 O3         -4.3603    0.4459   -0.9628 O.2       1 <0>         0.0000
     19 O4         -2.8107    1.8370    0.4374 O.2       1 <0>         0.0000
     20 O5          0.7884    0.4194    1.5745 O.3       1 <0>         0.0000
     21 O6         -3.4503   -0.4568    1.1641 O.3       1 <0>         0.0000
     22 O7          0.5982    2.4060   -0.6413 O.3       1 <0>         0.0000
     23 O8         -3.2262   -1.4783   -2.1967 O.3       1 <0>         0.0000
     24 F1          0.0657   -1.9044   -0.0787 F         1 <0>         0.0000
     25 S1         -3.1979    0.5445   -0.0997 S.o2      1 <0>         0.0000
     26 H1          2.1078   -1.0753    1.0253 H         1 <0>         0.0000
     27 H2          2.2736    0.4776    0.1601 H         1 <0>         0.0000
     28 H3         -0.7174    1.7899    1.2179 H         1 <0>         0.0000
     29 H4         -1.2425    0.1442    1.6150 H         1 <0>         0.0000
     30 H5          1.0413   -0.8591   -1.4680 H         1 <0>         0.0000
     31 H6         -0.9426    3.7105   -2.4164 H         1 <0>         0.0000
     32 H7         -0.9008    4.6059   -0.8808 H         1 <0>         0.0000
     33 H8         -0.0799    5.2360   -2.3254 H         1 <0>         0.0000
     34 H9          2.7492    3.9099   -0.1837 H         1 <0>         0.0000
     35 H10         1.3104    4.6703    0.4724 H         1 <0>         0.0000
     36 H11         2.1115    5.3842   -0.9448 H         1 <0>         0.0000
     37 H12         2.6570    2.6186   -2.3412 H         1 <0>         0.0000
     38 H13         1.1444    2.5043   -3.2665 H         1 <0>         0.0000
     39 H14         2.0582    4.0284   -3.1982 H         1 <0>         0.0000
     40 H15        -1.6645   -3.6109   -2.6898 H         1 <0>         0.0000
     41 H16        -3.1335   -4.1248   -1.8296 H         1 <0>         0.0000
     42 H17        -2.8852   -4.5432   -3.5388 H         1 <0>         0.0000
     43 H18        -5.4407   -1.7493   -3.6537 H         1 <0>         0.0000
     44 H19        -5.3826   -2.9589   -2.3839 H         1 <0>         0.0000
     45 H20        -5.1777   -3.4552   -4.0784 H         1 <0>         0.0000
     46 H21        -3.3432   -1.0135   -4.8324 H         1 <0>         0.0000
     47 H22        -1.7747   -1.7494   -4.4378 H         1 <0>         0.0000
     48 H23        -3.0088   -2.6609   -5.3370 H         1 <0>         0.0000
     49 H24        -3.7212   -1.3746    0.9266 H         1 <0>         0.0000
@<TRIPOS>BOND
     1    1    6 1
     2    1   16 2
     3    1   22 1
     4    2   15 am
     5    2   17 2
     6    2   23 1
     7    3    5 1
     8    3   20 1
     9    3   26 1
    10    3   27 1
    11    4    6 1
    12    4   20 1
    13    4   28 1
    14    4   29 1
    15    5    6 1
    16    5   24 1
    17    5   30 1
    18    6   15 1
    19    7   13 1
    20    7   31 1
    21    7   32 1
    22    7   33 1
    23    8   13 1
    24    8   34 1
    25    8   35 1
    26    8   36 1
    27    9   13 1
    28    9   37 1
    29    9   38 1
    30    9   39 1
    31   10   14 1
    32   10   40 1
    33   10   41 1
    34   10   42 1
    35   11   14 1
    36   11   43 1
    37   11   44 1
    38   11   45 1
    39   12   14 1
    40   12   46 1
    41   12   47 1
    42   12   48 1
    43   13   22 1
    44   14   23 1
    45   15   25 1
    46   18   25 2
    47   19   25 2
    48   21   25 1
    49   21   49 1
