@<TRIPOS>MOLECULE
*****
   22    22     0     0     0
SMALL
NO_CHARGES

@<TRIPOS>ATOM
      1 C1          0.7508   -1.5882   -0.0295 C.2       1 <0>         0.0000
      2 C2         -0.5436   -1.9169   -0.0317 C.2       1 <0>         0.0000
      3 C3          0.2277    0.7846    0.0158 C.2       1 <0>         0.0000
      4 C4          1.1634   -0.1906   -0.0091 C.2       1 <0>         0.0000
      5 C5         -1.2329    0.4042    0.0108 C.2       1 <0>         0.0000
      6 C6          0.5959    2.2100    0.0510 C.2       1 <0>         0.0000
      7 C7          2.6591   -0.0177   -0.0223 C.3       1 <0>         0.0000
      8 C8          0.3478    4.2607    1.4279 C.3       1 <0>         0.0000
      9 N1         -1.5094   -0.9502   -0.0135 N.am      1 <0>         0.0000
     10 N2          0.1130    2.8578    1.1713 N.am      1 <0>         0.0000
     11 O1         -2.1113    1.2645    0.0283 O.2       1 <0>         0.0000
     12 O2          1.2646    2.7068   -0.8500 O.2       1 <0>         0.0000
     13 H1          1.5095   -2.3639   -0.0432 H         1 <0>         0.0000
     14 H2         -0.8903   -2.9421   -0.0474 H         1 <0>         0.0000
     15 H3          3.0026    0.0415   -1.0505 H         1 <0>         0.0000
     16 H4          3.1216   -0.8664    0.4731 H         1 <0>         0.0000
     17 H5          2.9180    0.8946    0.5068 H         1 <0>         0.0000
     18 H6          1.2763    4.3778    2.0060 H         1 <0>         0.0000
     19 H7          0.4407    4.7976    0.4724 H         1 <0>         0.0000
     20 H8         -0.4952    4.6746    2.0006 H         1 <0>         0.0000
     21 H9         -2.4821   -1.2423   -0.0180 H         1 <0>         0.0000
     22 H10        -0.4308    2.3251    1.8441 H         1 <0>         0.0000
@<TRIPOS>BOND
     1    1    2 2
     2    1    4 1
     3    1   13 1
     4    2    9 1
     5    2   14 1
     6    3    4 2
     7    3    5 1
     8    3    6 1
     9    4    7 1
    10    5    9 am
    11    5   11 2
    12    6   10 am
    13    6   12 2
    14    7   15 1
    15    7   16 1
    16    7   17 1
    17    8   10 1
    18    8   18 1
    19    8   19 1
    20    8   20 1
    21    9   21 1
    22   10   22 1
