@<TRIPOS>MOLECULE
*****
   21    22     0     0     0
SMALL
NO_CHARGES

@<TRIPOS>ATOM
      1 C1         -2.6438   -2.4560    1.0012 C.ar      1 <0>         0.0000
      2 C2         -2.8833   -2.0047   -1.2781 C.ar      1 <0>         0.0000
      3 C3         -3.3560   -2.6647   -0.1623 C.ar      1 <0>         0.0000
      4 C4         -1.1915   -1.0781   -0.0755 C.ar      1 <0>         0.0000
      5 C5         -0.1180    1.2100   -0.5791 C.3       1 <0>         0.0000
      6 C6         -0.0223    1.0013    0.8999 C.3       1 <0>         0.0000
      7 C7          0.0107   -0.1991   -0.0290 C.3       1 <0>         0.0000
      8 C8          1.3241   -0.9072   -0.2135 C.3       1 <0>         0.0000
      9 N1         -1.5528   -1.6663    1.0808 N.ar      1 <0>         0.0000
     10 N2         -1.8001   -1.2005   -1.2706 N.ar      1 <0>         0.0000
     11 O1          1.3349   -1.5614   -1.4773 O.3       1 <0>         0.0000
     12 Br1        -4.8685   -3.7732   -0.2232 Br        1 <0>         0.0000
     13 H1         -2.9295   -2.9265    1.9367 H         1 <0>         0.0000
     14 H2         -3.3689   -2.0990   -2.2447 H         1 <0>         0.0000
     15 H3         -1.0733    1.5287   -0.9802 H         1 <0>         0.0000
     16 H4          0.7356    1.6489   -1.0826 H         1 <0>         0.0000
     17 H5          0.8957    1.3007    1.3922 H         1 <0>         0.0000
     18 H6         -0.9132    1.1786    1.4915 H         1 <0>         0.0000
     19 H7          1.4776   -1.6628    0.5679 H         1 <0>         0.0000
     20 H8          2.1618   -0.1984   -0.1843 H         1 <0>         0.0000
     21 H9          1.2166   -0.8712   -2.1490 H         1 <0>         0.0000
@<TRIPOS>BOND
     1    1    3 ar
     2    1    9 ar
     3    1   13 1
     4    2    3 ar
     5    2   10 ar
     6    2   14 1
     7    3   12 1
     8    4    7 1
     9    4    9 ar
    10    4   10 ar
    11    5    6 1
    12    5    7 1
    13    5   15 1
    14    5   16 1
    15    6    7 1
    16    6   17 1
    17    6   18 1
    18    7    8 1
    19    8   11 1
    20    8   19 1
    21    8   20 1
    22   11   21 1
