@<TRIPOS>MOLECULE
*****
   31    31     0     0     0
SMALL
NO_CHARGES

@<TRIPOS>ATOM
      1 C1          1.8879   -2.4495   -1.4176 C.ar      1 <0>         0.0000
      2 C2          1.8232   -1.4450   -0.4585 C.ar      1 <0>         0.0000
      3 C3          2.9218   -2.4011   -2.3388 C.ar      1 <0>         0.0000
      4 C4          3.7749   -0.4787   -1.4142 C.ar      1 <0>         0.0000
      5 C5          2.7809   -0.4369   -0.4499 C.ar      1 <0>         0.0000
      6 C6          4.3721    2.5626    0.6408 C.2       1 <0>         0.0000
      7 C7          2.1547    0.1879    1.9029 C.2       1 <0>         0.0000
      8 C8          5.7813    2.9924    0.9635 C.3       1 <0>         0.0000
      9 C9          0.3656    0.7407    3.5487 C.3       1 <0>         0.0000
     10 C10         5.0435    0.2639    1.3557 C.3       1 <0>         0.0000
     11 C11         2.7385    0.6683    0.5796 C.3       1 <0>         0.0000
     12 N1          3.8704   -1.4382   -2.3619 N.ar      1 <0>         0.0000
     13 N2          1.0729    0.9577    2.3072 N.am      1 <0>         0.0000
     14 N3          4.0644    1.2179    0.8507 N.am      1 <0>         0.0000
     15 O1          3.5705    3.3985    0.2151 O.2       1 <0>         0.0000
     16 O2          2.6298   -0.7505    2.5395 O.2       1 <0>         0.0000
     17 H1          1.1524   -3.2454   -1.4432 H         1 <0>         0.0000
     18 H2          1.0241   -1.4557    0.2777 H         1 <0>         0.0000
     19 H3          3.0161   -3.1612   -3.1073 H         1 <0>         0.0000
     20 H4          4.5495    0.2807   -1.4572 H         1 <0>         0.0000
     21 H5          6.4088    2.8793    0.0739 H         1 <0>         0.0000
     22 H6          5.7975    4.0447    1.2596 H         1 <0>         0.0000
     23 H7          6.1970    2.3635    1.7552 H         1 <0>         0.0000
     24 H8         -0.4580    0.0388    3.3941 H         1 <0>         0.0000
     25 H9         -0.0416    1.6844    3.9217 H         1 <0>         0.0000
     26 H10         1.0423    0.3287    4.3022 H         1 <0>         0.0000
     27 H11         5.0098    0.2335    2.4478 H         1 <0>         0.0000
     28 H12         6.0502    0.5539    1.0425 H         1 <0>         0.0000
     29 H13         4.8308   -0.7364    0.9691 H         1 <0>         0.0000
     30 H14         2.1411    1.5118    0.2129 H         1 <0>         0.0000
     31 H15         0.7516    1.7160    1.7127 H         1 <0>         0.0000
@<TRIPOS>BOND
     1    1    2 ar
     2    1    3 ar
     3    1   17 1
     4    2    5 ar
     5    2   18 1
     6    3   12 ar
     7    3   19 1
     8    4    5 ar
     9    4   12 ar
    10    4   20 1
    11    5   11 1
    12    6    8 1
    13    6   14 am
    14    6   15 2
    15    7   11 1
    16    7   13 am
    17    7   16 2
    18    8   21 1
    19    8   22 1
    20    8   23 1
    21    9   13 1
    22    9   24 1
    23    9   25 1
    24    9   26 1
    25   10   14 1
    26   10   27 1
    27   10   28 1
    28   10   29 1
    29   11   14 1
    30   11   30 1
    31   13   31 1
