@<TRIPOS>MOLECULE
*****
   23    22     0     0     0
SMALL
NO_CHARGES

@<TRIPOS>ATOM
      1 C1          1.9872    2.2403   -0.4566 C.3       1 <0>         0.0000
      2 C2          6.5784   -0.2972   -0.3800 C.3       1 <0>         0.0000
      3 C3          6.0016   -0.5434   -3.0716 C.3       1 <0>         0.0000
      4 C4          3.4894    1.4788   -2.3664 C.3       1 <0>         0.0000
      5 C5          2.0597    1.5432   -1.8172 C.3       1 <0>         0.0000
      6 N1          4.3584    0.7690   -1.4365 N.2       1 <0>         0.0000
      7 N2          1.2224    2.2680   -2.7772 N.3       1 <0>         0.0000
      8 O1          6.7856    1.7035   -2.0304 O.2       1 <0>         0.0000
      9 S1          5.8692    0.6173   -1.7309 S.o       1 <0>         0.0000
     10 H1          2.3825    3.2606   -0.5181 H         1 <0>         0.0000
     11 H2          2.5806    1.7068    0.2929 H         1 <0>         0.0000
     12 H3          0.9562    2.3000   -0.0899 H         1 <0>         0.0000
     13 H4          6.5495    0.3293    0.5128 H         1 <0>         0.0000
     14 H5          5.9893   -1.2033   -0.2306 H         1 <0>         0.0000
     15 H6          7.6084   -0.5486   -0.6376 H         1 <0>         0.0000
     16 H7          5.5890   -0.0808   -3.9696 H         1 <0>         0.0000
     17 H8          7.0559   -0.7844   -3.2156 H         1 <0>         0.0000
     18 H9          5.4368   -1.4390   -2.8087 H         1 <0>         0.0000
     19 H10         3.5183    0.9763   -3.3400 H         1 <0>         0.0000
     20 H11         3.8933    2.4891   -2.5025 H         1 <0>         0.0000
     21 H12         1.6564    0.5284   -1.7143 H         1 <0>         0.0000
     22 H13         1.2581    1.7832   -3.6406 H         1 <0>         0.0000
     23 H14         0.2982    2.2892   -2.4204 H         1 <0>         0.0000
@<TRIPOS>BOND
     1    1    5 1
     2    1   10 1
     3    1   11 1
     4    1   12 1
     5    2    9 1
     6    2   13 1
     7    2   14 1
     8    2   15 1
     9    3    9 1
    10    3   16 1
    11    3   17 1
    12    3   18 1
    13    4    5 1
    14    4    6 1
    15    4   19 1
    16    4   20 1
    17    5    7 1
    18    5   21 1
    19    6    9 2
    20    7   22 1
    21    7   23 1
    22    8    9 2
