@<TRIPOS>MOLECULE
*****
   23    23     0     0     0
SMALL
NO_CHARGES

@<TRIPOS>ATOM
      1 C1          1.3133   -2.8020   -0.9371 C.2       1 <0>         0.0000
      2 C2          1.9499   -0.7740   -0.8259 C.2       1 <0>         0.0000
      3 C3          0.6549   -0.7784   -0.3640 C.2       1 <0>         0.0000
      4 C4          2.8123    0.3638   -0.9444 C.2       1 <0>         0.0000
      5 C5         -0.1627    0.2920    0.1062 C.2       1 <0>         0.0000
      6 C6          5.1933    1.2014   -0.8754 C.3       1 <0>         0.0000
      7 C7         -2.5146    1.1998    0.3176 C.3       1 <0>         0.0000
      8 N1          2.3537   -2.0366   -1.1813 N.2       1 <0>         0.0000
      9 N2          0.2603   -2.0844   -0.4416 N.pl3     1 <0>         0.0000
     10 N3          4.1994    0.1545   -0.8046 N.am      1 <0>         0.0000
     11 N4         -1.5591    0.1918   -0.0819 N.am      1 <0>         0.0000
     12 O1          2.3521    1.5140   -1.1453 O.2       1 <0>         0.0000
     13 O2          0.3345    1.3091    0.6547 O.2       1 <0>         0.0000
     14 H1          1.2574   -3.8694   -1.0946 H         1 <0>         0.0000
     15 H2          5.5844    1.2798   -1.8932 H         1 <0>         0.0000
     16 H3          6.0215    0.9829   -0.1959 H         1 <0>         0.0000
     17 H4          4.7522    2.1611   -0.5930 H         1 <0>         0.0000
     18 H5         -2.9085    0.9713    1.3114 H         1 <0>         0.0000
     19 H6         -3.3464    1.2343   -0.3912 H         1 <0>         0.0000
     20 H7         -2.0372    2.1830    0.3458 H         1 <0>         0.0000
     21 H8         -0.6435   -2.4562   -0.1806 H         1 <0>         0.0000
     22 H9          4.5276   -0.7791   -0.5799 H         1 <0>         0.0000
     23 H10        -1.9198   -0.6127   -0.5844 H         1 <0>         0.0000
@<TRIPOS>BOND
     1    1    8 2
     2    1    9 1
     3    1   14 1
     4    2    3 2
     5    2    4 1
     6    2    8 1
     7    3    5 1
     8    3    9 1
     9    4   10 am
    10    4   12 2
    11    5   11 am
    12    5   13 2
    13    6   10 1
    14    6   15 1
    15    6   16 1
    16    6   17 1
    17    7   11 1
    18    7   18 1
    19    7   19 1
    20    7   20 1
    21    9   21 1
    22   10   22 1
    23   11   23 1
