@<TRIPOS>MOLECULE
*****
   24    24     0     0     0
SMALL
NO_CHARGES

@<TRIPOS>ATOM
      1 C1          1.8851   -1.0363   -0.1124 C.ar      1 <0>         0.0000
      2 C2          0.8066   -0.4630    0.5610 C.ar      1 <0>         0.0000
      3 C3          2.9210   -1.6309    0.6081 C.ar      1 <0>         0.0000
      4 C4          1.7997   -1.0786    2.6757 C.ar      1 <0>         0.0000
      5 C5          0.7638   -0.4841    1.9551 C.ar      1 <0>         0.0000
      6 C6          2.8783   -1.6520    2.0022 C.ar      1 <0>         0.0000
      7 C7          1.7556   -1.1002    4.1334 C.2       1 <0>         0.0000
      8 C8          1.6967   -2.5432    6.1783 C.3       1 <0>         0.0000
      9 C9          4.9999   -1.4057    3.0480 C.3       1 <0>         0.0000
     10 N1          1.7604   -2.3563    4.7466 N.am      1 <0>         0.0000
     11 O1          1.6958   -0.0386    4.7747 O.2       1 <0>         0.0000
     12 O2         -0.3002    0.0812    2.5927 O.3       1 <0>         0.0000
     13 O3          3.9006   -2.2388    2.6866 O.3       1 <0>         0.0000
     14 H1          1.9182   -1.0202   -1.1982 H         1 <0>         0.0000
     15 H2          0.0034   -0.0011   -0.0066 H         1 <0>         0.0000
     16 H3          3.7583   -2.0751    0.0769 H         1 <0>         0.0000
     17 H4          2.7049   -2.6361    6.5903 H         1 <0>         0.0000
     18 H5          1.1342   -3.4500    6.4164 H         1 <0>         0.0000
     19 H6          1.2014   -1.6898    6.6492 H         1 <0>         0.0000
     20 H7          5.7438   -1.9967    3.5879 H         1 <0>         0.0000
     21 H8          4.6450   -0.5850    3.6764 H         1 <0>         0.0000
     22 H9          5.4507   -0.9982    2.1401 H         1 <0>         0.0000
     23 H10         1.7466   -3.1920    4.1710 H         1 <0>         0.0000
     24 H11        -0.9234    0.4450    1.9449 H         1 <0>         0.0000
@<TRIPOS>BOND
     1    1    2 ar
     2    1    3 ar
     3    1   14 1
     4    2    5 ar
     5    2   15 1
     6    3    6 ar
     7    3   16 1
     8    4    5 ar
     9    4    6 ar
    10    4    7 1
    11    5   12 1
    12    6   13 1
    13    7   10 am
    14    7   11 2
    15    8   10 1
    16    8   17 1
    17    8   18 1
    18    8   19 1
    19    9   13 1
    20    9   20 1
    21    9   21 1
    22    9   22 1
    23   10   23 1
    24   12   24 1
