@<TRIPOS>MOLECULE
*****
   30    31     0     0     0
SMALL
NO_CHARGES

@<TRIPOS>ATOM
      1 C1          1.8851   -1.0363   -0.1124 C.ar      1 <0>         0.0000
      2 C2          2.8783   -1.6520    2.0022 C.ar      1 <0>         0.0000
      3 C3          0.8066   -0.4630    0.5610 C.ar      1 <0>         0.0000
      4 C4          1.7997   -1.0786    2.6757 C.ar      1 <0>         0.0000
      5 C5          2.9210   -1.6309    0.6081 C.ar      1 <0>         0.0000
      6 C6          4.9369   -2.6595   -1.9831 C.2       1 <0>         0.0000
      7 C7          0.7638   -0.4841    1.9551 C.ar      1 <0>         0.0000
      8 C8          5.1502   -2.7325   -3.3705 C.2       1 <0>         0.0000
      9 C9          6.0350   -3.2821   -1.4515 C.2       1 <0>         0.0000
     10 C10         4.2881   -2.2225   -4.4500 C.3       1 <0>         0.0000
     11 C11         6.4800   -3.5715   -0.0819 C.3       1 <0>         0.0000
     12 C12        -1.3130    0.6659    1.8138 C.3       1 <0>         0.0000
     13 N1          6.2932   -3.3530   -3.6760 N.2       1 <0>         0.0000
     14 N2          4.0024   -2.2057   -0.0670 N.2       1 <0>         0.0000
     15 N3          3.8498   -2.0819   -1.3050 N.2       1 <0>         0.0000
     16 O1          6.8519   -3.7004   -2.4519 O.3       1 <0>         0.0000
     17 O2         -0.2886    0.0753    2.6122 O.3       1 <0>         0.0000
     18 H1          1.9101   -1.0150   -1.1988 H         1 <0>         0.0000
     19 H2          3.6807   -2.1131    2.5720 H         1 <0>         0.0000
     20 H3          0.0027   -0.0012   -0.0059 H         1 <0>         0.0000
     21 H4          1.7720   -1.0984    3.7617 H         1 <0>         0.0000
     22 H5          4.5498   -1.1837   -4.7148 H         1 <0>         0.0000
     23 H6          4.3674   -2.8298   -5.3694 H         1 <0>         0.0000
     24 H7          3.2191   -2.2351   -4.1713 H         1 <0>         0.0000
     25 H8          6.1062   -4.5512    0.2663 H         1 <0>         0.0000
     26 H9          7.5823   -3.5891    0.0077 H         1 <0>         0.0000
     27 H10         6.1338   -2.8107    0.6427 H         1 <0>         0.0000
     28 H11        -2.0916    1.0746    2.4625 H         1 <0>         0.0000
     29 H12        -1.7380   -0.0892    1.1477 H         1 <0>         0.0000
     30 H13        -0.8786    1.4719    1.2175 H         1 <0>         0.0000
@<TRIPOS>BOND
     1    1    3 ar
     2    1    5 ar
     3    1   18 1
     4    2    4 ar
     5    2    5 ar
     6    2   19 1
     7    3    7 ar
     8    3   20 1
     9    4    7 ar
    10    4   21 1
    11    5   14 1
    12    6    8 1
    13    6    9 2
    14    6   15 1
    15    7   17 1
    16    8   10 1
    17    8   13 2
    18    9   11 1
    19    9   16 1
    20   10   22 1
    21   10   23 1
    22   10   24 1
    23   11   25 1
    24   11   26 1
    25   11   27 1
    26   12   17 1
    27   12   28 1
    28   12   29 1
    29   12   30 1
    30   13   16 1
    31   14   15 2
