@<TRIPOS>MOLECULE
*****
   27    28     0     0     0
SMALL
NO_CHARGES

@<TRIPOS>ATOM
      1 C1          2.1210   -0.0684    0.2786 C.ar      1 <0>         0.0000
      2 C2          7.7269   -2.4951    2.0597 C.ar      1 <0>         0.0000
      3 C3          0.8612    0.0175    0.8769 C.ar      1 <0>         0.0000
      4 C4          8.1560   -1.1625    2.1001 C.ar      1 <0>         0.0000
      5 C5          3.1371   -0.7601    0.9342 C.ar      1 <0>         0.0000
      6 C6          6.3847   -2.7976    2.2827 C.ar      1 <0>         0.0000
      7 C7          0.6309   -0.5965    2.1111 C.ar      1 <0>         0.0000
      8 C8          7.2435   -0.1389    2.3664 C.ar      1 <0>         0.0000
      9 C9          2.9077   -1.3926    2.1684 C.ar      1 <0>         0.0000
     10 C10         5.4398   -1.7858    2.5222 C.ar      1 <0>         0.0000
     11 C11         1.6298   -1.3216    2.7748 C.ar      1 <0>         0.0000
     12 C12         5.9070   -0.4685    2.5696 C.ar      1 <0>         0.0000
     13 C13         4.0115   -2.1880    2.7792 C.2       1 <0>         0.0000
     14 C14         1.3081   -1.9736    4.0991 C.3       1 <0>         0.0000
     15 O1          3.7970   -3.1973    3.4462 O.2       1 <0>         0.0000
     16 F1          5.0460    0.5393    2.8579 F         1 <0>         0.0000
     17 H1          2.3108    0.4030   -0.6818 H         1 <0>         0.0000
     18 H2          8.4379   -3.2917    1.8605 H         1 <0>         0.0000
     19 H3          0.0591    0.5644    0.3874 H         1 <0>         0.0000
     20 H4          9.2017   -0.9182    1.9342 H         1 <0>         0.0000
     21 H5          4.1194   -0.8274    0.4759 H         1 <0>         0.0000
     22 H6          6.0364   -3.8261    2.2748 H         1 <0>         0.0000
     23 H7         -0.3508   -0.5143    2.5717 H         1 <0>         0.0000
     24 H8          7.5493    0.9010    2.4286 H         1 <0>         0.0000
     25 H9          1.2236   -3.0582    3.9904 H         1 <0>         0.0000
     26 H10         2.0913   -1.7995    4.8415 H         1 <0>         0.0000
     27 H11         0.3635   -1.5857    4.4904 H         1 <0>         0.0000
@<TRIPOS>BOND
     1    1    3 ar
     2    1    5 ar
     3    1   17 1
     4    2    4 ar
     5    2    6 ar
     6    2   18 1
     7    3    7 ar
     8    3   19 1
     9    4    8 ar
    10    4   20 1
    11    5    9 ar
    12    5   21 1
    13    6   10 ar
    14    6   22 1
    15    7   11 ar
    16    7   23 1
    17    8   12 ar
    18    8   24 1
    19    9   11 ar
    20    9   13 1
    21   10   12 ar
    22   10   13 1
    23   11   14 1
    24   12   16 1
    25   13   15 2
    26   14   25 1
    27   14   26 1
    28   14   27 1
