@<TRIPOS>MOLECULE
*****
   27    28     0     0     0
SMALL
NO_CHARGES

@<TRIPOS>ATOM
      1 C1          0.2302   -4.9231    5.9417 C.ar      1 <0>         0.0000
      2 C2         -2.7443    0.3125    5.3781 C.ar      1 <0>         0.0000
      3 C3         -0.2826   -4.4256    4.7396 C.ar      1 <0>         0.0000
      4 C4          1.3224   -4.2885    6.5454 C.ar      1 <0>         0.0000
      5 C5         -2.1058    0.9091    4.2845 C.ar      1 <0>         0.0000
      6 C6         -1.9963   -0.3488    6.3583 C.ar      1 <0>         0.0000
      7 C7          0.2827   -3.2901    4.1540 C.ar      1 <0>         0.0000
      8 C8          1.9109   -3.1700    5.9518 C.ar      1 <0>         0.0000
      9 C9         -0.7160    0.8379    4.1605 C.ar      1 <0>         0.0000
     10 C10        -0.6054   -0.4220    6.2507 C.ar      1 <0>         0.0000
     11 C11         1.3836   -2.6651    4.7552 C.ar      1 <0>         0.0000
     12 C12         0.0147    0.1706    5.1473 C.ar      1 <0>         0.0000
     13 N1          1.9767   -1.5120    4.1549 N.pl3     1 <0>         0.0000
     14 O1          2.3840   -0.1475    6.2709 O.2       1 <0>         0.0000
     15 O2          2.2521    0.9791    3.9680 O.2       1 <0>         0.0000
     16 S1          1.7884   -0.0061    4.9450 S.o2      1 <0>         0.0000
     17 H1         -0.2149   -5.8007    6.4028 H         1 <0>         0.0000
     18 H2         -3.8257    0.3695    5.4696 H         1 <0>         0.0000
     19 H3         -1.1315   -4.9100    4.2645 H         1 <0>         0.0000
     20 H4          1.7299   -4.6752    7.4757 H         1 <0>         0.0000
     21 H5         -2.6877    1.4345    3.5323 H         1 <0>         0.0000
     22 H6         -2.4937   -0.8059    7.2091 H         1 <0>         0.0000
     23 H7         -0.1356   -2.8822    3.2362 H         1 <0>         0.0000
     24 H8          2.7636   -2.6761    6.4046 H         1 <0>         0.0000
     25 H9         -0.1986    1.3055    3.3284 H         1 <0>         0.0000
     26 H10        -0.0087   -0.9210    7.0066 H         1 <0>         0.0000
     27 H11         1.7347   -1.3894    3.1729 H         1 <0>         0.0000
@<TRIPOS>BOND
     1    1    4 ar
     2    1    3 ar
     3    1   17 1
     4    2    6 ar
     5    2    5 ar
     6    2   18 1
     7    3    7 ar
     8    3   19 1
     9    4    8 ar
    10    4   20 1
    11    5    9 ar
    12    5   21 1
    13    6   10 ar
    14    6   22 1
    15    7   11 ar
    16    7   23 1
    17    8   11 ar
    18    8   24 1
    19    9   12 ar
    20    9   25 1
    21   10   12 ar
    22   10   26 1
    23   11   13 1
    24   12   16 1
    25   13   16 1
    26   13   27 1
    27   14   16 2
    28   15   16 2
