@<TRIPOS>MOLECULE
*****
   30    31     0     0     0
SMALL
NO_CHARGES

@<TRIPOS>ATOM
      1 C1         -0.2519   -5.4936    0.0571 C.ar      1 <0>         0.0000
      2 C2         -0.4645   -4.5323   -0.9384 C.ar      1 <0>         0.0000
      3 C3          0.5220   -5.1692    1.1745 C.ar      1 <0>         0.0000
      4 C4          0.0940   -3.2575   -0.8226 C.ar      1 <0>         0.0000
      5 C5          1.0760   -3.8895    1.2912 C.ar      1 <0>         0.0000
      6 C6          0.8737   -2.9244    0.2962 C.ar      1 <0>         0.0000
      7 C7         -1.2081    0.8226    1.6516 C.3       1 <0>         0.0000
      8 C8         -1.5095    1.7351    0.4547 C.3       1 <0>         0.0000
      9 C9         -0.6781   -0.5516    1.2325 C.3       1 <0>         0.0000
     10 C10        -0.2808    1.9494   -0.4360 C.3       1 <0>         0.0000
     11 C11         1.5004   -1.5503    0.4480 C.3       1 <0>         0.0000
     12 N1          0.5583   -0.4099    0.4347 N.pl3     1 <0>         0.0000
     13 O1         -0.7858   -0.2458   -1.8244 O.2       1 <0>         0.0000
     14 O2          1.6330    0.5042   -1.6856 O.2       1 <0>         0.0000
     15 S1          0.3164    0.3608   -1.0549 S.o2      1 <0>         0.0000
     16 H1         -0.6879   -6.4848   -0.0373 H         1 <0>         0.0000
     17 H2         -1.0682   -4.7759   -1.8090 H         1 <0>         0.0000
     18 H3          0.6917   -5.9066    1.9550 H         1 <0>         0.0000
     19 H4         -0.0947   -2.5173   -1.5945 H         1 <0>         0.0000
     20 H5          1.6746   -3.6411    2.1658 H         1 <0>         0.0000
     21 H6         -0.4654    1.3013    2.3007 H         1 <0>         0.0000
     22 H7         -2.1198    0.6830    2.2425 H         1 <0>         0.0000
     23 H8         -2.3136    1.3075   -0.1528 H         1 <0>         0.0000
     24 H9         -1.8539    2.7142    0.8049 H         1 <0>         0.0000
     25 H10        -0.4112   -1.1347    2.1179 H         1 <0>         0.0000
     26 H11        -1.4397   -1.1219    0.6855 H         1 <0>         0.0000
     27 H12        -0.5130    2.5352   -1.3293 H         1 <0>         0.0000
     28 H13         0.5590    2.4038    0.0943 H         1 <0>         0.0000
     29 H14         2.0330   -1.4988    1.4035 H         1 <0>         0.0000
     30 H15         2.2380   -1.3634   -0.3362 H         1 <0>         0.0000
@<TRIPOS>BOND
     1    1    3 ar
     2    1    2 ar
     3    1   16 1
     4    2    4 ar
     5    2   17 1
     6    3    5 ar
     7    3   18 1
     8    4    6 ar
     9    4   19 1
    10    5    6 ar
    11    5   20 1
    12    6   11 1
    13    7    8 1
    14    7    9 1
    15    7   21 1
    16    7   22 1
    17    8   10 1
    18    8   23 1
    19    8   24 1
    20    9   12 1
    21    9   25 1
    22    9   26 1
    23   10   15 1
    24   10   27 1
    25   10   28 1
    26   11   12 1
    27   11   29 1
    28   11   30 1
    29   12   15 1
    30   13   15 2
    31   14   15 2
