@<TRIPOS>MOLECULE
*****
   27    28     0     0     0
SMALL
NO_CHARGES

@<TRIPOS>ATOM
      1 C1         -0.1625   -6.7740    0.2379 C.ar      1 <0>         0.0000
      2 C2         -1.3545   -6.1185    0.5603 C.ar      1 <0>         0.0000
      3 C3          1.0294   -6.0495    0.1021 C.ar      1 <0>         0.0000
      4 C4         -1.3641   -4.7319    0.7462 C.ar      1 <0>         0.0000
      5 C5          1.0319   -4.6661    0.2849 C.ar      1 <0>         0.0000
      6 C6         -0.1697   -4.0264    0.6010 C.ar      1 <0>         0.0000
      7 C7         -0.0889    0.3024   -1.9852 C.3       1 <0>         0.0000
      8 C8         -0.6557   -0.8796   -2.7870 C.3       1 <0>         0.0000
      9 C9          0.7413   -0.3702   -0.8807 C.3       1 <0>         0.0000
     10 C10        -0.9969   -1.8926   -1.6910 C.3       1 <0>         0.0000
     11 N1          0.1246   -1.7273   -0.7329 N.pl3     1 <0>         0.0000
     12 O1         -1.5095   -1.8647    1.2992 O.2       1 <0>         0.0000
     13 O2          1.0140   -1.8561    1.6187 O.2       1 <0>         0.0000
     14 S1         -0.1651   -2.2482    0.8400 S.o2      1 <0>         0.0000
     15 H1         -0.1588   -7.8514    0.0955 H         1 <0>         0.0000
     16 H2         -2.2758   -6.6836    0.6714 H         1 <0>         0.0000
     17 H3          1.9551   -6.5635   -0.1418 H         1 <0>         0.0000
     18 H4         -2.2731   -4.1987    1.0058 H         1 <0>         0.0000
     19 H5          1.9457   -4.0875    0.1913 H         1 <0>         0.0000
     20 H6          0.5111    0.9865   -2.5911 H         1 <0>         0.0000
     21 H7         -0.9092    0.8742   -1.5389 H         1 <0>         0.0000
     22 H8         -1.5308   -0.6157   -3.3866 H         1 <0>         0.0000
     23 H9          0.1077   -1.2911   -3.4560 H         1 <0>         0.0000
     24 H10         1.7874   -0.4996   -1.1728 H         1 <0>         0.0000
     25 H11         0.7233    0.1854    0.0585 H         1 <0>         0.0000
     26 H12        -1.9569   -1.6472   -1.2200 H         1 <0>         0.0000
     27 H13        -1.0325   -2.9255   -2.0476 H         1 <0>         0.0000
@<TRIPOS>BOND
     1    1    3 ar
     2    1    2 ar
     3    1   15 1
     4    2    4 ar
     5    2   16 1
     6    3    5 ar
     7    3   17 1
     8    4    6 ar
     9    4   18 1
    10    5    6 ar
    11    5   19 1
    12    6   14 1
    13    7    8 1
    14    7    9 1
    15    7   20 1
    16    7   21 1
    17    8   10 1
    18    8   22 1
    19    8   23 1
    20    9   11 1
    21    9   24 1
    22    9   25 1
    23   10   11 1
    24   10   26 1
    25   10   27 1
    26   11   14 1
    27   12   14 2
    28   13   14 2
