@<TRIPOS>MOLECULE
*****
   36    38     0     0     0
SMALL
NO_CHARGES

@<TRIPOS>ATOM
      1 C1         -0.1677   -0.2386    4.5896 C.ar      1 <0>         0.0000
      2 C2         -0.7264   -1.4148    4.0765 C.ar      1 <0>         0.0000
      3 C3          1.0667    0.2068    4.1073 C.ar      1 <0>         0.0000
      4 C4          3.8086   -3.8733    0.9477 C.ar      1 <0>         0.0000
      5 C5          3.3617   -3.9259   -0.3753 C.ar      1 <0>         0.0000
      6 C6         -0.0568   -2.1352    3.0843 C.ar      1 <0>         0.0000
      7 C7          1.7352   -0.5166    3.1142 C.ar      1 <0>         0.0000
      8 C8          3.0828   -3.1420    1.8904 C.ar      1 <0>         0.0000
      9 C9          2.1994   -3.2438   -0.7415 C.ar      1 <0>         0.0000
     10 C10         1.1796   -1.6923    2.5872 C.ar      1 <0>         0.0000
     11 C11         1.9076   -2.4628    1.5355 C.ar      1 <0>         0.0000
     12 C12         1.4614   -2.5109    0.1981 C.ar      1 <0>         0.0000
     13 C13        -1.1587   -1.7547   -2.3650 C.2       1 <0>         0.0000
     14 C14        -0.9738   -0.2538   -2.5432 C.3       1 <0>         0.0000
     15 C15        -0.4976    0.4724   -1.2810 C.3       1 <0>         0.0000
     16 C16         0.6823   -0.2773   -0.6617 C.3       1 <0>         0.0000
     17 C17         0.2584   -1.6950   -0.2508 C.3       1 <0>         0.0000
     18 N1         -0.4402   -2.3536   -1.3605 N.am      1 <0>         0.0000
     19 O1         -1.8767   -2.4148   -3.1161 O.2       1 <0>         0.0000
     20 H1         -0.6887    0.3229    5.3607 H         1 <0>         0.0000
     21 H2         -1.6811   -1.7737    4.4524 H         1 <0>         0.0000
     22 H3          1.5094    1.1180    4.5018 H         1 <0>         0.0000
     23 H4          4.7114   -4.4003    1.2454 H         1 <0>         0.0000
     24 H5          3.9160   -4.4920   -1.1195 H         1 <0>         0.0000
     25 H6         -0.4880   -3.0548    2.6956 H         1 <0>         0.0000
     26 H7          2.6928   -0.1666    2.7364 H         1 <0>         0.0000
     27 H8          3.4180   -3.1021    2.9237 H         1 <0>         0.0000
     28 H9          1.8566   -3.2714   -1.7720 H         1 <0>         0.0000
     29 H10        -0.2411   -0.1263   -3.3501 H         1 <0>         0.0000
     30 H11        -1.9213    0.1404   -2.9178 H         1 <0>         0.0000
     31 H12        -0.2157    1.5029   -1.5223 H         1 <0>         0.0000
     32 H13        -1.3154    0.5306   -0.5515 H         1 <0>         0.0000
     33 H14         1.5085   -0.3435   -1.3800 H         1 <0>         0.0000
     34 H15         1.0599    0.2365    0.2270 H         1 <0>         0.0000
     35 H16        -0.4339   -1.5946    0.5921 H         1 <0>         0.0000
     36 H17        -0.6535   -3.3403   -1.2498 H         1 <0>         0.0000
@<TRIPOS>BOND
     1    1    3 ar
     2    1    2 ar
     3    1   20 1
     4    2    6 ar
     5    2   21 1
     6    3    7 ar
     7    3   22 1
     8    4    5 ar
     9    4    8 ar
    10    4   23 1
    11    5    9 ar
    12    5   24 1
    13    6   10 ar
    14    6   25 1
    15    7   10 ar
    16    7   26 1
    17    8   11 ar
    18    8   27 1
    19    9   12 ar
    20    9   28 1
    21   10   11 1
    22   11   12 ar
    23   12   17 1
    24   13   14 1
    25   13   18 am
    26   13   19 2
    27   14   15 1
    28   14   29 1
    29   14   30 1
    30   15   16 1
    31   15   31 1
    32   15   32 1
    33   16   17 1
    34   16   33 1
    35   16   34 1
    36   17   18 1
    37   17   35 1
    38   18   36 1
