@<TRIPOS>MOLECULE
*****
   28    29     0     0     0
SMALL
NO_CHARGES

@<TRIPOS>ATOM
      1 C1          4.8371   -0.2251    2.1160 C.1       1 <0>         0.0000
      2 C2          2.6243   -0.6718   -0.8511 C.ar      1 <0>         0.0000
      3 C3          1.4255   -1.0282   -0.2203 C.ar      1 <0>         0.0000
      4 C4          4.0640   -0.7625    8.3348 C.ar      1 <0>         0.0000
      5 C5          5.2083   -0.4107    7.6032 C.ar      1 <0>         0.0000
      6 C6          3.7459   -0.4084   -0.0716 C.ar      1 <0>         0.0000
      7 C7          1.3316   -1.1246    1.1677 C.ar      1 <0>         0.0000
      8 C8          2.8801   -1.0490    7.6668 C.ar      1 <0>         0.0000
      9 C9          5.1049   -0.3633    6.2161 C.ar      1 <0>         0.0000
     10 C10         3.6716   -0.5002    1.3285 C.ar      1 <0>         0.0000
     11 C11         2.4561   -0.8617    1.9697 C.ar      1 <0>         0.0000
     12 C12         2.8779   -0.9729    6.2592 C.ar      1 <0>         0.0000
     13 C13         1.4091   -1.2637    4.1819 C.2       1 <0>         0.0000
     14 N1          5.7656   -0.0079    2.7880 N.1       1 <0>         0.0000
     15 N2          3.9672   -0.6376    5.5601 N.ar      1 <0>         0.0000
     16 N3          2.4605   -0.9311    3.3632 N.am      1 <0>         0.0000
     17 N4          1.7038   -1.2548    5.5572 N.am      1 <0>         0.0000
     18 O1          0.2710   -1.5575    3.8239 O.2       1 <0>         0.0000
     19 H1          2.6806   -0.6012   -1.9331 H         1 <0>         0.0000
     20 H2          0.5425   -1.2363   -0.8190 H         1 <0>         0.0000
     21 H3          4.0969   -0.8127    9.4200 H         1 <0>         0.0000
     22 H4          6.1483   -0.1813    8.0943 H         1 <0>         0.0000
     23 H5          4.6902   -0.1295   -0.5290 H         1 <0>         0.0000
     24 H6          0.4012   -1.4007    1.6437 H         1 <0>         0.0000
     25 H7          1.9791   -1.3243    8.2083 H         1 <0>         0.0000
     26 H8          5.9498   -0.0987    5.5842 H         1 <0>         0.0000
     27 H9          3.3357   -0.7191    3.8686 H         1 <0>         0.0000
     28 H10         0.8885   -1.5080    6.1017 H         1 <0>         0.0000
@<TRIPOS>BOND
     1    1   10 1
     2    1   14 3
     3    2    3 ar
     4    2    6 ar
     5    2   19 1
     6    3    7 ar
     7    3   20 1
     8    4    5 ar
     9    4    8 ar
    10    4   21 1
    11    5    9 ar
    12    5   22 1
    13    6   10 ar
    14    6   23 1
    15    7   11 ar
    16    7   24 1
    17    8   12 ar
    18    8   25 1
    19    9   15 ar
    20    9   26 1
    21   10   11 ar
    22   11   16 1
    23   12   15 ar
    24   12   17 1
    25   13   16 am
    26   13   17 am
    27   13   18 2
    28   16   27 1
    29   17   28 1
