@<TRIPOS>MOLECULE
*****
   31    32     0     0     0
SMALL
NO_CHARGES

@<TRIPOS>ATOM
      1 C1          4.3153    1.2138    0.2367 C.ar      1 <0>         0.0000
      2 C2          4.7428   -0.0461    0.6705 C.ar      1 <0>         0.0000
      3 C3          3.0987    1.3278   -0.4381 C.ar      1 <0>         0.0000
      4 C4          3.9544   -1.1731    0.4318 C.ar      1 <0>         0.0000
      5 C5          2.2937    0.2110   -0.6939 C.ar      1 <0>         0.0000
      6 C6          2.7336   -1.0437   -0.2446 C.ar      1 <0>         0.0000
      7 C7         -1.1754    1.2603    1.5932 C.3       1 <0>         0.0000
      8 C8         -2.3218    2.1015    1.0162 C.3       1 <0>         0.0000
      9 C9         -0.5267    0.3468    0.5517 C.3       1 <0>         0.0000
     10 C10        -1.8613    2.9644   -0.1623 C.3       1 <0>         0.0000
     11 C11         0.9811    0.3790   -1.4247 C.3       1 <0>         0.0000
     12 N1          0.0300    1.1364   -0.5711 N.pl3     1 <0>         0.0000
     13 O1         -2.2412    0.9817   -1.8944 O.2       1 <0>         0.0000
     14 O2         -0.5088    2.7436   -2.4821 O.2       1 <0>         0.0000
     15 O3          1.9201   -2.1309   -0.4816 O.3       1 <0>         0.0000
     16 S1         -1.1855    1.9198   -1.4734 S.o2      1 <0>         0.0000
     17 H1          4.9257    2.0934    0.4196 H         1 <0>         0.0000
     18 H2          5.6885   -0.1553    1.1947 H         1 <0>         0.0000
     19 H3          2.7490    2.2998   -0.7774 H         1 <0>         0.0000
     20 H4          4.2844   -2.1536    0.7724 H         1 <0>         0.0000
     21 H5         -0.4034    1.9207    2.0049 H         1 <0>         0.0000
     22 H6         -1.5521    0.6432    2.4161 H         1 <0>         0.0000
     23 H7         -3.1356    1.4508    0.6798 H         1 <0>         0.0000
     24 H8         -2.7325    2.7624    1.7872 H         1 <0>         0.0000
     25 H9          0.3168   -0.1823    1.0006 H         1 <0>         0.0000
     26 H10        -1.2367   -0.4071    0.1830 H         1 <0>         0.0000
     27 H11        -2.6861    3.5077   -0.6309 H         1 <0>         0.0000
     28 H12        -1.0667    3.6644    0.1053 H         1 <0>         0.0000
     29 H13         1.1425    0.9683   -2.3295 H         1 <0>         0.0000
     30 H14         0.5638   -0.5903   -1.7133 H         1 <0>         0.0000
     31 H15         2.3552   -2.9295   -0.1438 H         1 <0>         0.0000
@<TRIPOS>BOND
     1    1    2 ar
     2    1    3 ar
     3    1   17 1
     4    2    4 ar
     5    2   18 1
     6    3    5 ar
     7    3   19 1
     8    4    6 ar
     9    4   20 1
    10    5    6 ar
    11    5   11 1
    12    6   15 1
    13    7    8 1
    14    7    9 1
    15    7   21 1
    16    7   22 1
    17    8   10 1
    18    8   23 1
    19    8   24 1
    20    9   12 1
    21    9   25 1
    22    9   26 1
    23   10   16 1
    24   10   27 1
    25   10   28 1
    26   11   12 1
    27   11   29 1
    28   11   30 1
    29   12   16 1
    30   13   16 2
    31   14   16 2
    32   15   31 1
