@<TRIPOS>MOLECULE
*****
   28    29     0     0     0
SMALL
NO_CHARGES

@<TRIPOS>ATOM
      1 C1          1.4867   -2.9254    2.9650 C.1       1 <0>         0.0000
      2 C2          1.9073   -0.9102   -0.1487 C.ar      1 <0>         0.0000
      3 C3          2.0452    0.3752    0.3867 C.ar      1 <0>         0.0000
      4 C4         -1.2412   -1.4282    9.1232 C.ar      1 <0>         0.0000
      5 C5         -2.4268   -0.7328    8.8674 C.ar      1 <0>         0.0000
      6 C6          1.6889   -1.9912    0.7035 C.ar      1 <0>         0.0000
      7 C7          1.9380    0.5831    1.7633 C.ar      1 <0>         0.0000
      8 C8         -0.2073   -1.3640    8.1913 C.ar      1 <0>         0.0000
      9 C9         -2.5097    0.0086    7.6860 C.ar      1 <0>         0.0000
     10 C10         1.6091   -1.7939    2.0915 C.ar      1 <0>         0.0000
     11 C11         1.7135   -0.4922    2.6284 C.ar      1 <0>         0.0000
     12 C12        -0.3976   -0.5795    7.0427 C.ar      1 <0>         0.0000
     13 C13         0.4535   -0.6316    4.7292 C.2       1 <0>         0.0000
     14 N1          1.4354   -3.8492    3.6734 N.1       1 <0>         0.0000
     15 N2         -1.5155    0.1056    6.7950 N.ar      1 <0>         0.0000
     16 N3          1.6316   -0.2949    4.0239 N.am      1 <0>         0.0000
     17 N4          0.6512   -0.4473    6.1037 N.am      1 <0>         0.0000
     18 O1         -0.5596   -1.0378    4.2016 O.2       1 <0>         0.0000
     19 H1          1.9750   -1.0684   -1.2209 H         1 <0>         0.0000
     20 H2          2.2175    1.2230   -0.2706 H         1 <0>         0.0000
     21 H3         -1.1285   -2.0260   10.0238 H         1 <0>         0.0000
     22 H4         -3.2632   -0.7620    9.5591 H         1 <0>         0.0000
     23 H5          1.5965   -2.9983    0.3090 H         1 <0>         0.0000
     24 H6          2.0084    1.5884    2.1715 H         1 <0>         0.0000
     25 H7          0.7145   -1.9217    8.3347 H         1 <0>         0.0000
     26 H8         -3.4144    0.5655    7.4469 H         1 <0>         0.0000
     27 H9          2.1150    0.5220    4.3794 H         1 <0>         0.0000
     28 H10         1.5730   -0.7088    6.4327 H         1 <0>         0.0000
@<TRIPOS>BOND
     1    1   10 1
     2    1   14 3
     3    2    3 ar
     4    2    6 ar
     5    2   19 1
     6    3    7 ar
     7    3   20 1
     8    4    5 ar
     9    4    8 ar
    10    4   21 1
    11    5    9 ar
    12    5   22 1
    13    6   10 ar
    14    6   23 1
    15    7   11 ar
    16    7   24 1
    17    8   12 ar
    18    8   25 1
    19    9   15 ar
    20    9   26 1
    21   10   11 ar
    22   11   16 1
    23   12   15 ar
    24   12   17 1
    25   13   16 am
    26   13   17 am
    27   13   18 2
    28   16   27 1
    29   17   28 1
