@<TRIPOS>MOLECULE
*****
   26    27     0     0     0
SMALL
NO_CHARGES

@<TRIPOS>ATOM
      1 C1          1.7569   -1.2375   -0.2124 C.ar      1 <0>         0.0000
      2 C2          0.6988   -0.5529    0.3997 C.ar      1 <0>         0.0000
      3 C3          2.7877   -1.7344    0.5809 C.ar      1 <0>         0.0000
      4 C4          0.6939   -0.3557    1.7775 C.ar      1 <0>         0.0000
      5 C5          5.8181   -2.5707    3.6148 C.2       1 <0>         0.0000
      6 C6          4.8220   -3.4796    4.0514 C.2       1 <0>         0.0000
      7 C7          2.7909   -1.5465    1.9693 C.ar      1 <0>         0.0000
      8 C8          1.7405   -0.8357    2.5843 C.ar      1 <0>         0.0000
      9 C9          5.1641   -1.7040    2.7521 C.2       1 <0>         0.0000
     10 C10         5.6591   -0.5198    1.9833 C.3       1 <0>         0.0000
     11 C11         2.7657   -0.3664    4.7358 C.3       1 <0>         0.0000
     12 N1          3.6330   -3.2094    3.5133 N.2       1 <0>         0.0000
     13 N2          3.8576   -2.1189    2.7222 N.pl3     1 <0>         0.0000
     14 O1          1.6070   -0.5852    3.9176 O.3       1 <0>         0.0000
     15 H1          1.7677   -1.3969   -1.2865 H         1 <0>         0.0000
     16 H2         -0.1214   -0.1656   -0.1990 H         1 <0>         0.0000
     17 H3          3.6019   -2.3038    0.1412 H         1 <0>         0.0000
     18 H4         -0.1122    0.1823    2.2672 H         1 <0>         0.0000
     19 H5          6.8655   -2.5451    3.8850 H         1 <0>         0.0000
     20 H6          4.9195   -4.3179    4.7307 H         1 <0>         0.0000
     21 H7          5.6622   -0.7051    0.9042 H         1 <0>         0.0000
     22 H8          5.0323    0.3615    2.1567 H         1 <0>         0.0000
     23 H9          6.6801   -0.2818    2.2899 H         1 <0>         0.0000
     24 H10         2.3946    0.1468    5.6251 H         1 <0>         0.0000
     25 H11         3.4895    0.2774    4.2251 H         1 <0>         0.0000
     26 H12         3.2376   -1.3072    5.0240 H         1 <0>         0.0000
@<TRIPOS>BOND
     1    1    2 ar
     2    1    3 ar
     3    1   15 1
     4    2    4 ar
     5    2   16 1
     6    3    7 ar
     7    3   17 1
     8    4    8 ar
     9    4   18 1
    10    5    6 1
    11    5    9 2
    12    5   19 1
    13    6   12 2
    14    6   20 1
    15    7    8 ar
    16    7   13 1
    17    8   14 1
    18    9   10 1
    19    9   13 1
    20   10   21 1
    21   10   22 1
    22   10   23 1
    23   11   14 1
    24   11   24 1
    25   11   25 1
    26   11   26 1
    27   12   13 1
