@<TRIPOS>MOLECULE
*****
   32    33     0     0     0
SMALL
NO_CHARGES

@<TRIPOS>ATOM
      1 C1         -5.0087    2.2870   -5.1253 C.ar      1 <0>         0.0000
      2 C2         -5.5526    1.0618   -5.5197 C.ar      1 <0>         0.0000
      3 C3         -3.6922    2.3339   -4.6599 C.ar      1 <0>         0.0000
      4 C4         -4.7749   -0.0990   -5.4557 C.ar      1 <0>         0.0000
      5 C5         -2.9158    1.1710   -4.5964 C.ar      1 <0>         0.0000
      6 C6         -3.4481   -0.0664   -5.0057 C.ar      1 <0>         0.0000
      7 C7         -1.4711    1.2665   -4.1744 C.2       1 <0>         0.0000
      8 C8         -0.7545    3.2998   -0.5936 C.3       1 <0>         0.0000
      9 C9         -2.1740    2.9920   -1.0922 C.3       1 <0>         0.0000
     10 C10         0.2682    3.1632   -1.7310 C.3       1 <0>         0.0000
     11 C11        -2.2210    1.6313   -1.7970 C.3       1 <0>         0.0000
     12 C12         0.1563    1.7965   -2.4175 C.3       1 <0>         0.0000
     13 C13        -2.6106   -1.3233   -4.9692 C.3       1 <0>         0.0000
     14 N1         -1.2197    1.5652   -2.8616 N.am      1 <0>         0.0000
     15 O1         -0.5716    1.1008   -5.0045 O.2       1 <0>         0.0000
     16 H1         -5.6020    3.1961   -5.1775 H         1 <0>         0.0000
     17 H2         -6.5776    1.0080   -5.8779 H         1 <0>         0.0000
     18 H3         -3.2595    3.2814   -4.3470 H         1 <0>         0.0000
     19 H4         -5.2042   -1.0494   -5.7653 H         1 <0>         0.0000
     20 H5         -0.4962    2.5966    0.2104 H         1 <0>         0.0000
     21 H6         -0.7120    4.3044   -0.1585 H         1 <0>         0.0000
     22 H7         -2.8858    2.9933   -0.2586 H         1 <0>         0.0000
     23 H8         -2.4975    3.7672   -1.7981 H         1 <0>         0.0000
     24 H9          0.0980    3.9464   -2.4801 H         1 <0>         0.0000
     25 H10         1.2877    3.2948   -1.3506 H         1 <0>         0.0000
     26 H11        -2.0033    0.8355   -1.0685 H         1 <0>         0.0000
     27 H12        -3.2087    1.4337   -2.2102 H         1 <0>         0.0000
     28 H13         0.8044    1.7250   -3.2902 H         1 <0>         0.0000
     29 H14         0.4406    0.9987   -1.7155 H         1 <0>         0.0000
     30 H15        -1.7917   -1.2602   -5.6918 H         1 <0>         0.0000
     31 H16        -2.1527   -1.4723   -3.9851 H         1 <0>         0.0000
     32 H17        -3.2154   -2.2045   -5.1992 H         1 <0>         0.0000
@<TRIPOS>BOND
     1    1    2 ar
     2    1    3 ar
     3    1   16 1
     4    2    4 ar
     5    2   17 1
     6    3    5 ar
     7    3   18 1
     8    4    6 ar
     9    4   19 1
    10    5    6 ar
    11    5    7 1
    12    6   13 1
    13    7   14 am
    14    7   15 2
    15    8   10 1
    16    8    9 1
    17    8   20 1
    18    8   21 1
    19    9   11 1
    20    9   22 1
    21    9   23 1
    22   10   12 1
    23   10   24 1
    24   10   25 1
    25   11   14 1
    26   11   26 1
    27   11   27 1
    28   12   14 1
    29   12   28 1
    30   12   29 1
    31   13   30 1
    32   13   31 1
    33   13   32 1
