@<TRIPOS>MOLECULE
*****
   33    34     0     0     0
SMALL
NO_CHARGES

@<TRIPOS>ATOM
      1 C1         -2.7968    3.0937    3.1015 C.ar      1 <0>         0.0000
      2 C2         -2.2085    3.0772    1.8371 C.ar      1 <0>         0.0000
      3 C3         -2.7301    1.9630    3.9173 C.ar      1 <0>         0.0000
      4 C4         -1.5440    1.9367    1.3643 C.ar      1 <0>         0.0000
      5 C5         -2.0664    0.8090    3.4849 C.ar      1 <0>         0.0000
      6 C6         -1.4722    0.8094    2.2062 C.ar      1 <0>         0.0000
      7 C7         -1.5567   -1.3647    1.0224 C.3       1 <0>         0.0000
      8 C8          0.6057   -0.3647    1.4685 C.3       1 <0>         0.0000
      9 C9         -1.0190   -2.7707    1.2731 C.3       1 <0>         0.0000
     10 C10         1.2357   -1.7254    1.7540 C.3       1 <0>         0.0000
     11 C11        -0.9300    1.9613   -0.0188 C.3       1 <0>         0.0000
     12 C12        -1.9943   -0.4085    4.3773 C.3       1 <0>         0.0000
     13 N1         -0.8020   -0.4067    1.8060 N.pl3     1 <0>         0.0000
     14 N2          0.4724   -2.7849    0.9730 N.4       1 <0>         0.0000
     15 H1         -3.3114    3.9852    3.4489 H         1 <0>         0.0000
     16 H2         -2.2724    3.9560    1.2007 H         1 <0>         0.0000
     17 H3         -3.1914    1.9775    4.9012 H         1 <0>         0.0000
     18 H4         -1.5358   -1.1543   -0.0643 H         1 <0>         0.0000
     19 H5         -2.6046   -1.3433    1.3289 H         1 <0>         0.0000
     20 H6          1.1085    0.3803    2.0892 H         1 <0>         0.0000
     21 H7          0.8031   -0.0962    0.4143 H         1 <0>         0.0000
     22 H8         -1.1234   -3.0502    2.3224 H         1 <0>         0.0000
     23 H9         -1.4863   -3.5233    0.6339 H         1 <0>         0.0000
     24 H10         2.2804   -1.7807    1.4396 H         1 <0>         0.0000
     25 H11         1.1445   -1.9932    2.8075 H         1 <0>         0.0000
     26 H12         0.1520    2.1332    0.0195 H         1 <0>         0.0000
     27 H13        -1.1004    1.0306   -0.5680 H         1 <0>         0.0000
     28 H14        -1.3594    2.7706   -0.6134 H         1 <0>         0.0000
     29 H15        -2.5544   -1.2536    3.9589 H         1 <0>         0.0000
     30 H16        -0.9611   -0.7418    4.5171 H         1 <0>         0.0000
     31 H17        -2.4179   -0.1941    5.3609 H         1 <0>         0.0000
     32 H18         0.6087   -2.6149   -0.0316 H         1 <0>         0.0000
     33 H19         0.8615   -3.7142    1.1662 H         1 <0>         0.0000
@<TRIPOS>BOND
     1    1    3 ar
     2    1    2 ar
     3    1   15 1
     4    2    4 ar
     5    2   16 1
     6    3    5 ar
     7    3   17 1
     8    4    6 ar
     9    4   11 1
    10    5    6 ar
    11    5   12 1
    12    6   13 1
    13    7    9 1
    14    7   13 1
    15    7   18 1
    16    7   19 1
    17    8   10 1
    18    8   13 1
    19    8   20 1
    20    8   21 1
    21    9   14 1
    22    9   22 1
    23    9   23 1
    24   10   14 1
    25   10   24 1
    26   10   25 1
    27   11   26 1
    28   11   27 1
    29   11   28 1
    30   12   29 1
    31   12   30 1
    32   12   31 1
    33   14   32 1
    34   14   33 1
