@<TRIPOS>MOLECULE
*****
   24    24     0     0     0
SMALL
NO_CHARGES

@<TRIPOS>ATOM
      1 C1          3.1981    3.4532   -4.5555 C.2       1 <0>         0.0000
      2 C2          4.1264    3.9038   -3.6242 C.2       1 <0>         0.0000
      3 C3          2.3197    2.5747   -3.8701 C.2       1 <0>         0.0000
      4 C4          2.7382    2.4902   -2.5336 C.2       1 <0>         0.0000
      5 C5          2.2575    1.8850   -1.2764 C.2       1 <0>         0.0000
      6 C6          0.8887    0.3053   -0.0616 C.3       1 <0>         0.0000
      7 C7          1.5096   -0.2283   -2.3822 C.3       1 <0>         0.0000
      8 C8         -0.0289    2.3797   -4.0079 C.3       1 <0>         0.0000
      9 N1          3.8355    3.3271   -2.4245 N.pl3     1 <0>         0.0000
     10 N2          1.4382    0.7803   -1.3278 N.am      1 <0>         0.0000
     11 O1          2.5796    2.4100   -0.1971 O.2       1 <0>         0.0000
     12 O2          1.2584    1.9386   -4.4640 O.3       1 <0>         0.0000
     13 H1          3.1449    3.7175   -5.6031 H         1 <0>         0.0000
     14 H2          4.9612    4.5818   -3.7379 H         1 <0>         0.0000
     15 H3         -0.0379   -0.2412   -0.2632 H         1 <0>         0.0000
     16 H4          0.6818    1.1532    0.5903 H         1 <0>         0.0000
     17 H5          1.5882   -0.3650    0.4566 H         1 <0>         0.0000
     18 H6          1.9391   -1.1541   -1.9758 H         1 <0>         0.0000
     19 H7          2.1301    0.1122   -3.2060 H         1 <0>         0.0000
     20 H8          0.5113   -0.4532   -2.7735 H         1 <0>         0.0000
     21 H9         -0.7667    1.8349   -4.6009 H         1 <0>         0.0000
     22 H10        -0.1445    3.4575   -4.1734 H         1 <0>         0.0000
     23 H11        -0.1714    2.1566   -2.9446 H         1 <0>         0.0000
     24 H12         4.2564    3.5201   -1.5236 H         1 <0>         0.0000
@<TRIPOS>BOND
     1    1    2 2
     2    1    3 1
     3    1   13 1
     4    2    9 1
     5    2   14 1
     6    3    4 2
     7    3   12 1
     8    4    5 1
     9    4    9 1
    10    5   10 am
    11    5   11 2
    12    6   10 1
    13    6   15 1
    14    6   16 1
    15    6   17 1
    16    7   10 1
    17    7   18 1
    18    7   19 1
    19    7   20 1
    20    8   12 1
    21    8   21 1
    22    8   22 1
    23    8   23 1
    24    9   24 1
