@<TRIPOS>MOLECULE
*****
   29    31     0     0     0
SMALL
NO_CHARGES

@<TRIPOS>ATOM
      1 C1          1.6014   -1.3511   -0.1900 C.ar      1 <0>         0.0000
      2 C2          0.7101   -2.1504    0.5323 C.ar      1 <0>         0.0000
      3 C3          2.4805   -0.5025    0.4944 C.ar      1 <0>         0.0000
      4 C4          0.3359   -0.5780    6.1280 C.ar      1 <0>         0.0000
      5 C5          1.4490   -0.9029    6.9119 C.ar      1 <0>         0.0000
      6 C6          0.7003   -2.1038    1.9312 C.ar      1 <0>         0.0000
      7 C7          2.4719   -0.4593    1.8898 C.ar      1 <0>         0.0000
      8 C8          0.4052   -0.7297    4.7430 C.ar      1 <0>         0.0000
      9 C9          2.6026   -1.3959    6.3083 C.ar      1 <0>         0.0000
     10 C10         5.9585   -2.8711    4.2385 C.2       1 <0>         0.0000
     11 C11         5.3331   -3.2863    3.0804 C.2       1 <0>         0.0000
     12 C12         1.5849   -1.2636    2.6265 C.ar      1 <0>         0.0000
     13 C13         1.5678   -1.2052    4.1158 C.ar      1 <0>         0.0000
     14 C14         2.6794   -1.5676    4.9124 C.ar      1 <0>         0.0000
     15 C15         3.9190   -2.1588    4.3832 C.2       1 <0>         0.0000
     16 N1          5.0788   -2.1813    5.0367 N.2       1 <0>         0.0000
     17 N2          4.0368   -2.8302    3.1883 N.pl3     1 <0>         0.0000
     18 H1          1.6104   -1.3865   -1.2762 H         1 <0>         0.0000
     19 H2          0.0240   -2.8121    0.0096 H         1 <0>         0.0000
     20 H3          3.1723    0.1266   -0.0598 H         1 <0>         0.0000
     21 H4         -0.5725   -0.1994    6.5892 H         1 <0>         0.0000
     22 H5          1.4132   -0.7822    7.9915 H         1 <0>         0.0000
     23 H6          0.0135   -2.7324    2.4925 H         1 <0>         0.0000
     24 H7          3.1605    0.1929    2.4201 H         1 <0>         0.0000
     25 H8         -0.4421   -0.4489    4.1228 H         1 <0>         0.0000
     26 H9          3.4674   -1.6726    6.9024 H         1 <0>         0.0000
     27 H10         6.9874   -3.0297    4.5348 H         1 <0>         0.0000
     28 H11         5.6778   -3.8424    2.2205 H         1 <0>         0.0000
     29 H12         3.3065   -2.9426    2.4973 H         1 <0>         0.0000
@<TRIPOS>BOND
     1    1    3 ar
     2    1    2 ar
     3    1   18 1
     4    2    6 ar
     5    2   19 1
     6    3    7 ar
     7    3   20 1
     8    4    5 ar
     9    4    8 ar
    10    4   21 1
    11    5    9 ar
    12    5   22 1
    13    6   12 ar
    14    6   23 1
    15    7   12 ar
    16    7   24 1
    17    8   13 ar
    18    8   25 1
    19    9   14 ar
    20    9   26 1
    21   10   11 2
    22   10   16 1
    23   10   27 1
    24   11   17 1
    25   11   28 1
    26   12   13 1
    27   13   14 ar
    28   14   15 1
    29   15   16 2
    30   15   17 1
    31   17   29 1
