@<TRIPOS>MOLECULE
*****
   17    17     0     0     0
SMALL
NO_CHARGES

@<TRIPOS>ATOM
      1 C1          1.9960   -0.3037   -0.3688 C.2       1 <0>         0.0000
      2 C2          0.7077    0.2751   -0.4696 C.2       1 <0>         0.0000
      3 C3          3.0192    0.2870   -1.0645 C.2       1 <0>         0.0000
      4 C4          0.4476    1.3974   -1.2324 C.2       1 <0>         0.0000
      5 C5          1.5290    2.0361   -1.9782 C.2       1 <0>         0.0000
      6 C6         -0.9654    1.9123   -1.2544 C.2       1 <0>         0.0000
      7 C7         -1.3079    3.1372   -2.0678 C.3       1 <0>         0.0000
      8 N1          2.7796    1.3908   -1.8190 N.am      1 <0>         0.0000
      9 O1          1.4774    3.0335   -2.7017 O.2       1 <0>         0.0000
     10 O2         -1.8275    1.3245   -0.6052 O.2       1 <0>         0.0000
     11 H1          2.1808   -1.1843    0.2348 H         1 <0>         0.0000
     12 H2         -0.1324   -0.1607    0.0651 H         1 <0>         0.0000
     13 H3          4.0408   -0.0799   -1.0527 H         1 <0>         0.0000
     14 H4         -1.0586    2.9832   -3.1217 H         1 <0>         0.0000
     15 H5         -0.7077    3.9940   -1.7481 H         1 <0>         0.0000
     16 H6         -2.3725    3.3456   -1.9494 H         1 <0>         0.0000
     17 H7          3.5331    1.8334   -2.3371 H         1 <0>         0.0000
@<TRIPOS>BOND
     1    1    2 1
     2    1    3 2
     3    1   11 1
     4    2    4 2
     5    2   12 1
     6    3    8 1
     7    3   13 1
     8    4    5 1
     9    4    6 1
    10    5    8 am
    11    5    9 2
    12    6    7 1
    13    6   10 2
    14    7   14 1
    15    7   15 1
    16    7   16 1
    17    8   17 1
