@<TRIPOS>MOLECULE
*****
   18    17     0     0     0
SMALL
NO_CHARGES

@<TRIPOS>ATOM
      1 C1          2.4860   -1.2630   -0.0640 C.2       1 <0>         0.0000
      2 C2          4.0180    0.1730    1.4080 C.3       1 <0>         0.0000
      3 C3          0.9280    0.6610   -0.3320 C.3       1 <0>         0.0000
      4 C4          0.0920   -1.7110   -0.2260 C.3       1 <0>         0.0000
      5 C5          3.6930   -0.3170   -0.0140 C.3       1 <0>         0.0000
      6 N1          1.2270   -0.7700   -0.1350 N.am      1 <0>         0.0000
      7 O1          2.7020   -2.4700   -0.0250 O.2       1 <0>         0.0000
      8 H1          3.1700    0.7150    1.8260 H         1 <0>         0.0000
      9 H2          4.8890    0.8270    1.3830 H         1 <0>         0.0000
     10 H3          4.2340   -0.6870    2.0450 H         1 <0>         0.0000
     11 H4         -0.1320    0.8170   -0.1830 H         1 <0>         0.0000
     12 H5          1.2110    0.9170   -1.3450 H         1 <0>         0.0000
     13 H6          1.4880    1.2330    0.3940 H         1 <0>         0.0000
     14 H7         -0.7980   -1.2190    0.1440 H         1 <0>         0.0000
     15 H8          0.3120   -2.5780    0.3850 H         1 <0>         0.0000
     16 H9         -0.0150   -1.9920   -1.2660 H         1 <0>         0.0000
     17 H10         3.5340    0.5330   -0.6740 H         1 <0>         0.0000
     18 H11         4.5550   -0.8640   -0.3960 H         1 <0>         0.0000
@<TRIPOS>BOND
     1    1    5 1
     2    1    6 am
     3    1    7 2
     4    2    5 1
     5    2    8 1
     6    2    9 1
     7    2   10 1
     8    3    6 1
     9    3   11 1
    10    3   12 1
    11    3   13 1
    12    4    6 1
    13    4   14 1
    14    4   15 1
    15    4   16 1
    16    5   17 1
    17    5   18 1
