@<TRIPOS>MOLECULE
*****
   33    35     0     0     0
SMALL
NO_CHARGES

@<TRIPOS>ATOM
      1 C1         -3.3134   -1.7425   -0.8466 C.ar      1 <0>         0.0000
      2 C2         -2.5994   -2.3201    1.3771 C.ar      1 <0>         0.0000
      3 C3         -2.1538   -0.9708   -0.9809 C.ar      1 <0>         0.0000
      4 C4         -3.5351   -2.4208    0.3447 C.ar      1 <0>         0.0000
      5 C5         -1.2643   -0.9124    0.1098 C.ar      1 <0>         0.0000
      6 C6         -1.3863   -3.1869   -4.6024 C.3       1 <0>         0.0000
      7 C7         -1.0291   -3.3173   -3.1356 C.3       1 <0>         0.0000
      8 C8         -0.0268    1.3680   -0.0822 C.3       1 <0>         0.0000
      9 C9          0.3816    0.7244    1.2270 C.3       1 <0>         0.0000
     10 C10        -1.0946   -1.9531   -3.7844 C.3       1 <0>         0.0000
     11 C11         0.0299   -0.1435    0.0458 C.3       1 <0>         0.0000
     12 C12         1.1587   -0.9006   -0.6404 C.3       1 <0>         0.0000
     13 C13        -1.9328   -0.2261   -2.2879 C.3       1 <0>         0.0000
     14 N1         -1.4944   -1.5826    1.2546 N.ar      1 <0>         0.0000
     15 N2         -2.1989   -1.0833   -3.4524 N.3       1 <0>         0.0000
     16 Br1        -5.1050   -3.4974    0.5798 Br        1 <0>         0.0000
     17 H1         -4.0039   -1.8191   -1.6804 H         1 <0>         0.0000
     18 H2         -2.7459   -2.8465    2.3180 H         1 <0>         0.0000
     19 H3         -0.6566   -3.4927   -5.3464 H         1 <0>         0.0000
     20 H4         -2.4234   -3.3559   -4.8751 H         1 <0>         0.0000
     21 H5         -1.8269   -3.5763   -2.4493 H         1 <0>         0.0000
     22 H6         -0.0504   -3.7073   -2.8720 H         1 <0>         0.0000
     23 H7         -1.0039    1.8418   -0.1258 H         1 <0>         0.0000
     24 H8          0.7362    1.8555   -0.6842 H         1 <0>         0.0000
     25 H9          1.4266    0.7747    1.5200 H         1 <0>         0.0000
     26 H10        -0.3210    0.7523    2.0533 H         1 <0>         0.0000
     27 H11        -0.1296   -1.4690   -3.9677 H         1 <0>         0.0000
     28 H12         2.0714   -0.2959   -0.6696 H         1 <0>         0.0000
     29 H13         0.8971   -1.1726   -1.6683 H         1 <0>         0.0000
     30 H14         1.3790   -1.8244   -0.0947 H         1 <0>         0.0000
     31 H15        -2.6367    0.6146   -2.3283 H         1 <0>         0.0000
     32 H16        -0.9263    0.2075   -2.3074 H         1 <0>         0.0000
     33 H17        -2.4185   -0.4999   -4.2565 H         1 <0>         0.0000
@<TRIPOS>BOND
     1    1    3 ar
     2    1    4 ar
     3    1   17 1
     4    2    4 ar
     5    2   14 ar
     6    2   18 1
     7    3    5 ar
     8    3   13 1
     9    4   16 1
    10    5   11 1
    11    5   14 ar
    12    6    7 1
    13    6   10 1
    14    6   19 1
    15    6   20 1
    16    7   10 1
    17    7   21 1
    18    7   22 1
    19    8    9 1
    20    8   11 1
    21    8   23 1
    22    8   24 1
    23    9   11 1
    24    9   25 1
    25    9   26 1
    26   10   15 1
    27   10   27 1
    28   11   12 1
    29   12   28 1
    30   12   29 1
    31   12   30 1
    32   13   15 1
    33   13   31 1
    34   13   32 1
    35   15   33 1
