@<TRIPOS>MOLECULE
*****
   25    25     0     0     0
SMALL
NO_CHARGES

@<TRIPOS>ATOM
      1 C1          1.3490    8.7286    0.5865 C.2       1 <0>         0.0000
      2 C2          0.2151    6.6915    0.2085 C.2       1 <0>         0.0000
      3 C3          1.9695   10.0225    1.0531 C.2       1 <0>         0.0000
      4 C4          0.7898    0.1299    0.0577 C.3       1 <0>         0.0000
      5 C5          1.2752    1.5823   -0.0019 C.3       1 <0>         0.0000
      6 C6          0.1212    2.5891    0.1084 C.3       1 <0>         0.0000
      7 C7          0.6210    4.0299    0.0464 C.3       1 <0>         0.0000
      8 N1          1.4882    8.2981   -0.6416 N.2       1 <0>         0.0000
      9 N2          0.8242    7.1212   -0.8583 N.2       1 <0>         0.0000
     10 N3          2.2842   10.0539    2.3931 N.am      1 <0>         0.0000
     11 O1          2.1212   10.9687    0.2996 O.2       1 <0>         0.0000
     12 O2         -1.2331    5.0795    1.7340 O.2       1 <0>         0.0000
     13 S1          0.3659    7.7038    1.6150 S.3       1 <0>         0.0000
     14 S2         -0.8041    5.1857    0.2835 S.o       1 <0>         0.0000
     15 H1          0.0976   -0.0899   -0.7628 H         1 <0>         0.0000
     16 H2          1.6285   -0.5699   -0.0161 H         1 <0>         0.0000
     17 H3          0.2659   -0.0726    0.9984 H         1 <0>         0.0000
     18 H4          1.9908    1.7646    0.8098 H         1 <0>         0.0000
     19 H5          1.8204    1.7514   -0.9391 H         1 <0>         0.0000
     20 H6         -0.5980    2.4123   -0.7014 H         1 <0>         0.0000
     21 H7         -0.4133    2.4328    1.0520 H         1 <0>         0.0000
     22 H8          1.3326    4.2510    0.8479 H         1 <0>         0.0000
     23 H9          1.0653    4.2854   -0.9206 H         1 <0>         0.0000
     24 H10         2.7950   10.8736    2.7018 H         1 <0>         0.0000
     25 H11         2.4581    9.1953    2.9006 H         1 <0>         0.0000
@<TRIPOS>BOND
     1    1    3 1
     2    1    8 2
     3    1   13 1
     4    2    9 2
     5    2   13 1
     6    2   14 1
     7    3   10 am
     8    3   11 2
     9    4    5 1
    10    4   15 1
    11    4   16 1
    12    4   17 1
    13    5    6 1
    14    5   18 1
    15    5   19 1
    16    6    7 1
    17    6   20 1
    18    6   21 1
    19    7   14 1
    20    7   22 1
    21    7   23 1
    22    8    9 1
    23   10   24 1
    24   10   25 1
    25   12   14 2
