@<TRIPOS>MOLECULE
*****
   20    21     0     0     0
SMALL
NO_CHARGES

@<TRIPOS>ATOM
      1 C1          4.5250    0.8151   -1.3147 C.ar      1 <0>         0.0000
      2 C2          1.6202   -2.0715    0.7030 C.2       1 <0>         0.0000
      3 C3          2.0835   -0.1486   -0.4136 C.ar      1 <0>         0.0000
      4 C4          1.0183   -0.9376    0.1871 C.2       1 <0>         0.0000
      5 C5          3.2907   -0.8697   -0.1848 C.ar      1 <0>         0.0000
      6 C6          4.5249   -0.3891   -0.6287 C.ar      1 <0>         0.0000
      7 C7          2.2224    1.0233   -1.1945 C.ar      1 <0>         0.0000
      8 C8         -0.4103   -0.6027    0.4202 C.2       1 <0>         0.0000
      9 C9         -1.3841   -1.7648    0.5388 C.3       1 <0>         0.0000
     10 N1          3.3886    1.4848   -1.5983 N.ar      1 <0>         0.0000
     11 N2          2.9788   -2.0261    0.4890 N.pl3     1 <0>         0.0000
     12 O1         -0.7881    0.5545    0.5322 O.2       1 <0>         0.0000
     13 Br1         6.1262   -1.3806   -0.3022 Br        1 <0>         0.0000
     14 Br2         0.6978    1.9956   -1.8248 Br        1 <0>         0.0000
     15 H1          5.4529    1.2546   -1.6710 H         1 <0>         0.0000
     16 H2          1.1809   -2.8975    1.2446 H         1 <0>         0.0000
     17 H3         -1.0991   -2.4460    1.3480 H         1 <0>         0.0000
     18 H4         -1.3973   -2.3464   -0.3892 H         1 <0>         0.0000
     19 H5         -2.3813   -1.3724    0.7421 H         1 <0>         0.0000
     20 H6          3.6582   -2.7101    0.7970 H         1 <0>         0.0000
@<TRIPOS>BOND
     1    1    6 ar
     2    1   10 ar
     3    1   15 1
     4    2    4 2
     5    2   11 1
     6    2   16 1
     7    3    4 1
     8    3    5 ar
     9    3    7 ar
    10    4    8 1
    11    5    6 ar
    12    5   11 1
    13    6   13 1
    14    7   10 ar
    15    7   14 1
    16    8    9 1
    17    8   12 2
    18    9   17 1
    19    9   18 1
    20    9   19 1
    21   11   20 1
