@<TRIPOS>MOLECULE
*****
   29    30     0     0     0
SMALL
NO_CHARGES

@<TRIPOS>ATOM
      1 C1         -1.9801    0.3650    1.8831 C.ar      1 <0>         0.0000
      2 C2         -2.8611   -0.2908    2.7249 C.ar      1 <0>         0.0000
      3 C3         -0.9149   -0.3524    1.3770 C.ar      1 <0>         0.0000
      4 C4         -2.6187   -1.6207    3.0046 C.ar      1 <0>         0.0000
      5 C5         -0.4763    0.9026   -0.8340 C.3       1 <0>         0.0000
      6 C6          0.3967   -0.3155   -0.8778 C.3       1 <0>         0.0000
      7 C7          0.0534    0.3185    0.4692 C.3       1 <0>         0.0000
      8 C8         -0.2319   -1.7622   -2.8170 C.3       1 <0>         0.0000
      9 C9         -3.1579   -3.6732    4.0781 C.3       1 <0>         0.0000
     10 C10        -0.1706   -1.6230   -1.3176 C.3       1 <0>         0.0000
     11 N1         -0.7021   -1.6533    1.6678 N.ar      1 <0>         0.0000
     12 N2         -1.5683   -2.2979    2.4948 N.ar      1 <0>         0.0000
     13 N3          1.1158    1.0487    1.1882 N.3       1 <0>         0.0000
     14 O1         -3.4661   -2.3052    3.8318 O.3       1 <0>         0.0000
     15 H1         -2.1318    1.4103    1.6360 H         1 <0>         0.0000
     16 H2         -3.7132    0.2298    3.1479 H         1 <0>         0.0000
     17 H3         -0.0537    1.8351   -1.1920 H         1 <0>         0.0000
     18 H4         -1.5306    0.7918   -1.0619 H         1 <0>         0.0000
     19 H5          1.4087   -0.1892   -1.2489 H         1 <0>         0.0000
     20 H6         -0.8167   -0.9480   -3.2610 H         1 <0>         0.0000
     21 H7         -0.7070   -2.7101   -3.0913 H         1 <0>         0.0000
     22 H8          0.7764   -1.7277   -3.2428 H         1 <0>         0.0000
     23 H9         -3.9067   -4.1011    4.7491 H         1 <0>         0.0000
     24 H10        -2.1646   -3.7486    4.5277 H         1 <0>         0.0000
     25 H11        -3.1687   -4.2163    3.1301 H         1 <0>         0.0000
     26 H12         0.4270   -2.4640   -0.9210 H         1 <0>         0.0000
     27 H13        -1.1926   -1.7614   -0.9201 H         1 <0>         0.0000
     28 H14         1.8970    0.5251    1.4963 H         1 <0>         0.0000
     29 H15         0.9048    1.9636    1.5011 H         1 <0>         0.0000
@<TRIPOS>BOND
     1    1    2 ar
     2    1    3 ar
     3    1   15 1
     4    2    4 ar
     5    2   16 1
     6    3    7 1
     7    3   11 ar
     8    4   12 ar
     9    4   14 1
    10    5    6 1
    11    5    7 1
    12    5   17 1
    13    5   18 1
    14    6    7 1
    15    6   10 1
    16    6   19 1
    17    7   13 1
    18    8   10 1
    19    8   20 1
    20    8   21 1
    21    8   22 1
    22    9   14 1
    23    9   23 1
    24    9   24 1
    25    9   25 1
    26   10   26 1
    27   10   27 1
    28   11   12 ar
    29   13   28 1
    30   13   29 1
