@<TRIPOS>MOLECULE
*****
   21    21     0     0     0
SMALL
NO_CHARGES

@<TRIPOS>ATOM
      1 C1          2.1103    3.0374    2.4096 C.2       1 <0>         0.0000
      2 C2         -0.1904    2.9808    1.0955 C.2       1 <0>         0.0000
      3 C3          0.6185    0.9609    2.5844 C.3       1 <0>         0.0000
      4 C4          0.9669    2.2294    1.8376 C.3       1 <0>         0.0000
      5 C5          1.3558    0.8330    1.2799 C.3       1 <0>         0.0000
      6 C6          2.8193    0.4203    1.3072 C.3       1 <0>         0.0000
      7 C7          0.6219    0.3123    0.0551 C.3       1 <0>         0.0000
      8 N1          2.4921    4.0971    1.6339 N.am      1 <0>         0.0000
      9 O1         -1.3238    2.4476    1.1536 O.co2     1 <0>         0.0000
     10 O2          2.6912    2.7454    3.4693 O.2       1 <0>         0.0000
     11 O3          0.1272    4.0490    0.4778 O.co2     1 <0>         0.0000
     12 H1          1.1743    0.7773    3.4998 H         1 <0>         0.0000
     13 H2         -0.4411    0.7262    2.5901 H         1 <0>         0.0000
     14 H3          3.3522    0.8224    0.4354 H         1 <0>         0.0000
     15 H4          2.8979   -0.6754    1.2694 H         1 <0>         0.0000
     16 H5          3.3275    0.7697    2.2081 H         1 <0>         0.0000
     17 H6          1.0933    0.6848   -0.8641 H         1 <0>         0.0000
     18 H7         -0.4233    0.6246    0.0548 H         1 <0>         0.0000
     19 H8          0.6678   -0.7862    0.0338 H         1 <0>         0.0000
     20 H9          3.0674    4.7810    2.1119 H         1 <0>         0.0000
     21 H10         1.7338    4.4003    0.9893 H         1 <0>         0.0000
@<TRIPOS>BOND
     1    1    4 1
     2    1    8 am
     3    1   10 2
     4    2    4 1
     5    2    9 1
     6    2   11 2
     7    3    4 1
     8    3    5 1
     9    3   12 1
    10    3   13 1
    11    4    5 1
    12    5    6 1
    13    5    7 1
    14    6   14 1
    15    6   15 1
    16    6   16 1
    17    7   17 1
    18    7   18 1
    19    7   19 1
    20    8   20 1
    21    8   21 1
