@<TRIPOS>MOLECULE
*****
   27    28     0     0     0
SMALL
NO_CHARGES

@<TRIPOS>ATOM
      1 C1          2.3550   -1.1801   -0.2257 C.ar      1 <0>         0.0000
      2 C2          1.2226   -0.5779    0.3321 C.ar      1 <0>         0.0000
      3 C3          3.1433   -1.6608    1.9958 C.ar      1 <0>         0.0000
      4 C4          3.3380   -1.7248    0.6114 C.ar      1 <0>         0.0000
      5 C5          1.0333   -0.5004    1.7184 C.ar      1 <0>         0.0000
      6 C6          2.0098   -1.0654    2.5733 C.ar      1 <0>         0.0000
      7 C7          2.5337    0.3798    4.5986 C.2       1 <0>         0.0000
      8 C8          5.5456   -1.5643   -0.7877 C.3       1 <0>         0.0000
      9 C9          5.9320   -2.0741    0.5878 C.3       1 <0>         0.0000
     10 C10         4.5592   -2.3760    0.0304 C.3       1 <0>         0.0000
     11 C11        -0.1823    0.1939    2.2898 C.3       1 <0>         0.0000
     12 C12         1.9004   -0.9802    4.0695 C.3       1 <0>         0.0000
     13 O1          3.7619    0.3207    4.8592 O.co2     1 <0>         0.0000
     14 O2          1.7300    1.3499    4.6762 O.co2     1 <0>         0.0000
     15 H1          2.4864   -1.2114   -1.3063 H         1 <0>         0.0000
     16 H2          0.4721   -0.1409   -0.3262 H         1 <0>         0.0000
     17 H3          3.9056   -2.0620    2.6594 H         1 <0>         0.0000
     18 H4          5.3444   -0.5015   -0.8874 H         1 <0>         0.0000
     19 H5          6.0032   -2.0274   -1.6590 H         1 <0>         0.0000
     20 H6          6.6543   -2.8843    0.6512 H         1 <0>         0.0000
     21 H7          5.9898   -1.3482    1.3933 H         1 <0>         0.0000
     22 H8          4.4164   -3.4007   -0.3138 H         1 <0>         0.0000
     23 H9         -0.8579   -0.5253    2.7740 H         1 <0>         0.0000
     24 H10         0.1213    0.9173    3.0543 H         1 <0>         0.0000
     25 H11        -0.7471    0.7034    1.5008 H         1 <0>         0.0000
     26 H12         0.8548   -1.0275    4.3869 H         1 <0>         0.0000
     27 H13         2.4488   -1.8099    4.5250 H         1 <0>         0.0000
@<TRIPOS>BOND
     1    1    2 ar
     2    1    4 ar
     3    1   15 1
     4    2    5 ar
     5    2   16 1
     6    3    4 ar
     7    3    6 ar
     8    3   17 1
     9    4   10 1
    10    5    6 ar
    11    5   11 1
    12    6   12 1
    13    7   12 1
    14    7   13 1
    15    7   14 2
    16    8    9 1
    17    8   10 1
    18    8   18 1
    19    8   19 1
    20    9   10 1
    21    9   20 1
    22    9   21 1
    23   10   22 1
    24   11   23 1
    25   11   24 1
    26   11   25 1
    27   12   26 1
    28   12   27 1
