@<TRIPOS>MOLECULE
*****
   19    19     0     0     0
SMALL
NO_CHARGES

@<TRIPOS>ATOM
      1 C1          1.1818   -1.5339   -2.6659 C.2       1 <0>         0.0000
      2 C2         -0.6921    0.8070   -0.3051 C.3       1 <0>         0.0000
      3 C3         -1.6676   -0.5066   -1.5551 C.3       1 <0>         0.0000
      4 C4         -0.2827   -0.5363   -0.9089 C.3       1 <0>         0.0000
      5 C5          2.8604   -2.1235   -4.4090 C.3       1 <0>         0.0000
      6 N1          0.8229   -0.4745   -1.8367 N.am      1 <0>         0.0000
      7 N2          2.2799   -1.2060   -3.4571 N.am      1 <0>         0.0000
      8 O1          0.6042   -2.6197   -2.6975 O.2       1 <0>         0.0000
      9 O2         -2.0553    0.6427   -0.7645 O.3       1 <0>         0.0000
     10 H1         -0.6370    0.8618    0.7858 H         1 <0>         0.0000
     11 H2         -0.2351    1.7006   -0.7421 H         1 <0>         0.0000
     12 H3         -1.7045   -0.2783   -2.6250 H         1 <0>         0.0000
     13 H4         -2.2978   -1.3748   -1.3424 H         1 <0>         0.0000
     14 H5         -0.1554   -1.3337   -0.1700 H         1 <0>         0.0000
     15 H6          3.6807   -2.6786   -3.9306 H         1 <0>         0.0000
     16 H7          2.0909   -2.8304   -4.7528 H         1 <0>         0.0000
     17 H8          3.2515   -1.5604   -5.2692 H         1 <0>         0.0000
     18 H9          1.3645    0.3828   -1.8865 H         1 <0>         0.0000
     19 H10         2.6635   -0.2680   -3.3963 H         1 <0>         0.0000
@<TRIPOS>BOND
     1    1    6 am
     2    1    7 am
     3    1    8 2
     4    2    4 1
     5    2    9 1
     6    2   10 1
     7    2   11 1
     8    3    4 1
     9    3    9 1
    10    3   12 1
    11    3   13 1
    12    4    6 1
    13    4   14 1
    14    5    7 1
    15    5   15 1
    16    5   16 1
    17    5   17 1
    18    6   18 1
    19    7   19 1
