@<TRIPOS>MOLECULE
*****
   50    53     0     0     0
SMALL
NO_CHARGES

@<TRIPOS>ATOM
      1 C1          3.1608    3.5851   -7.1296 C.ar      1 <0>         0.0000
      2 C2          4.5159    3.4534   -6.7523 C.ar      1 <0>         0.0000
      3 C3          2.1299    3.3143   -6.2332 C.ar      1 <0>         0.0000
      4 C4          2.5816   -1.0891    0.5831 C.ar      1 <0>         0.0000
      5 C5          4.8788    3.0476   -5.4669 C.ar      1 <0>         0.0000
      6 C6          2.8910   -2.4424    0.6906 C.ar      1 <0>         0.0000
      7 C7          1.7444    2.5352   -3.7434 C.2       1 <0>         0.0000
      8 C8          2.4718    2.9007   -4.9325 C.ar      1 <0>         0.0000
      9 C9          1.2516   -0.6631    0.4544 C.ar      1 <0>         0.0000
     10 C10         0.1814   -1.5789    0.4272 C.ar      1 <0>         0.0000
     11 C11         3.8344    2.7832   -4.5852 C.ar      1 <0>         0.0000
     12 C12         0.5045   -2.9464    0.5564 C.ar      1 <0>         0.0000
     13 C13         1.8377   -3.3384    0.6758 C.ar      1 <0>         0.0000
     14 C14         2.6832    2.2321   -2.7949 C.2       1 <0>         0.0000
     15 C15         2.5639    1.8411   -1.3688 C.2       1 <0>         0.0000
     16 C16        -1.4056    0.3778    0.0394 C.3       1 <0>         0.0000
     17 C17         1.0475    0.8360    0.3049 C.3       1 <0>         0.0000
     18 C18        -1.2854   -1.1404    0.3206 C.3       1 <0>         0.0000
     19 C19        -0.3660    1.2545    0.7386 C.3       1 <0>         0.0000
     20 C20        -2.0238   -1.4973    1.6344 C.3       1 <0>         0.0000
     21 C21        -1.9951   -1.8413   -0.8632 C.3       1 <0>         0.0000
     22 C22        -0.6414    2.7469    0.4248 C.3       1 <0>         0.0000
     23 N1          1.3450    1.2826   -1.0534 N.am      1 <0>         0.0000
     24 O1          3.4603    2.0331   -0.5524 O.2       1 <0>         0.0000
     25 O2          3.9622    2.3802   -3.2821 O.3       1 <0>         0.0000
     26 O3         -0.4761   -3.9082    0.5803 O.3       1 <0>         0.0000
     27 O4         -0.3684    1.1193    2.1541 O.3       1 <0>         0.0000
     28 F1          2.0698   -4.6849    0.7949 F         1 <0>         0.0000
     29 F2         -1.7475    3.1542    1.1147 F         1 <0>         0.0000
     30 F3          0.3737    3.5472    0.7909 F         1 <0>         0.0000
     31 F4         -0.9047    2.9843   -0.8844 F         1 <0>         0.0000
     32 H1          2.9234    3.9053   -8.1403 H         1 <0>         0.0000
     33 H2          5.2932    3.6751   -7.4782 H         1 <0>         0.0000
     34 H3          1.0903    3.4192   -6.5316 H         1 <0>         0.0000
     35 H4          3.3743   -0.3473    0.5942 H         1 <0>         0.0000
     36 H5          5.9159    2.9463   -5.1629 H         1 <0>         0.0000
     37 H6          3.9106   -2.8001    0.7930 H         1 <0>         0.0000
     38 H7          0.6718    2.5462   -3.5984 H         1 <0>         0.0000
     39 H8         -1.3165    0.5519   -1.0377 H         1 <0>         0.0000
     40 H9         -2.4159    0.7054    0.3082 H         1 <0>         0.0000
     41 H10         1.7576    1.3548    0.9487 H         1 <0>         0.0000
     42 H11        -3.0577   -1.1347    1.5936 H         1 <0>         0.0000
     43 H12        -1.5265   -1.0504    2.4977 H         1 <0>         0.0000
     44 H13        -2.0523   -2.5784    1.7790 H         1 <0>         0.0000
     45 H14        -3.0035   -1.4283   -0.9829 H         1 <0>         0.0000
     46 H15        -2.0825   -2.9154   -0.7052 H         1 <0>         0.0000
     47 H16        -1.4492   -1.6753   -1.7987 H         1 <0>         0.0000
     48 H17         0.8139    0.8755   -1.8125 H         1 <0>         0.0000
     49 H18        -0.0430   -4.7729    0.6877 H         1 <0>         0.0000
     50 H19        -1.2628    1.3118    2.4809 H         1 <0>         0.0000
@<TRIPOS>BOND
     1    1    2 ar
     2    1    3 ar
     3    1   32 1
     4    2    5 ar
     5    2   33 1
     6    3    8 ar
     7    3   34 1
     8    4    6 ar
     9    4    9 ar
    10    4   35 1
    11    5   11 ar
    12    5   36 1
    13    6   13 ar
    14    6   37 1
    15    7    8 1
    16    7   14 2
    17    7   38 1
    18    8   11 ar
    19    9   10 ar
    20    9   17 1
    21   10   12 ar
    22   10   18 1
    23   11   25 1
    24   12   13 ar
    25   12   26 1
    26   13   28 1
    27   14   15 1
    28   14   25 1
    29   15   23 am
    30   15   24 2
    31   16   18 1
    32   16   19 1
    33   16   39 1
    34   16   40 1
    35   17   19 1
    36   17   23 1
    37   17   41 1
    38   18   20 1
    39   18   21 1
    40   19   22 1
    41   19   27 1
    42   20   42 1
    43   20   43 1
    44   20   44 1
    45   21   45 1
    46   21   46 1
    47   21   47 1
    48   22   29 1
    49   22   30 1
    50   22   31 1
    51   23   48 1
    52   26   49 1
    53   27   50 1
