@<TRIPOS>MOLECULE
*****
   39    41     0     0     0
SMALL
NO_CHARGES

@<TRIPOS>ATOM
      1 C1          0.3080    1.6538   -1.0320 C.1       1 <0>         0.0000
      2 C2          1.5836   -4.0410   -4.7829 C.ar      1 <0>         0.0000
      3 C3          0.5389   -4.5478   -4.0043 C.ar      1 <0>         0.0000
      4 C4          1.9382   -2.6916   -4.6685 C.ar      1 <0>         0.0000
      5 C5         -0.1443   -3.7091   -3.1167 C.ar      1 <0>         0.0000
      6 C6          1.2530   -1.8585   -3.7809 C.ar      1 <0>         0.0000
      7 C7          3.6995    1.2248    0.6623 C.2       1 <0>         0.0000
      8 C8          2.0158    1.9223    1.7071 C.2       1 <0>         0.0000
      9 C9          0.2028   -2.3570   -2.9943 C.ar      1 <0>         0.0000
     10 C10        -2.1411    1.2695   -0.6588 C.3       1 <0>         0.0000
     11 C11        -1.6179    1.9162    0.5907 C.3       1 <0>         0.0000
     12 C12        -0.7022    1.0070   -0.2238 C.3       1 <0>         0.0000
     13 C13        -0.4994   -1.4528   -2.0062 C.3       1 <0>         0.0000
     14 C14         0.3482   -1.2565   -0.7367 C.3       1 <0>         0.0000
     15 C15         0.6372   -0.1973    1.5653 C.3       1 <0>         0.0000
     16 C16        -0.2966   -0.3697    0.3376 C.3       1 <0>         0.0000
     17 N1          1.0975    2.1621   -1.7205 N.1       1 <0>         0.0000
     18 N2          3.2054    2.3306    1.2948 N.2       1 <0>         0.0000
     19 N3          2.8959    0.1672    0.6693 N.2       1 <0>         0.0000
     20 N4          1.8059    0.6315    1.3458 N.pl3     1 <0>         0.0000
     21 O1         -1.5005   -0.9645    0.8488 O.3       1 <0>         0.0000
     22 H1          2.1148   -4.6895   -5.4749 H         1 <0>         0.0000
     23 H2          0.2534   -5.5934   -4.0901 H         1 <0>         0.0000
     24 H3          2.7469   -2.2885   -5.2728 H         1 <0>         0.0000
     25 H4         -0.9608   -4.1092   -2.5180 H         1 <0>         0.0000
     26 H5          1.5327   -0.8101   -3.6964 H         1 <0>         0.0000
     27 H6          4.6726    1.1944    0.1899 H         1 <0>         0.0000
     28 H7          1.2863    2.5063    2.2536 H         1 <0>         0.0000
     29 H8         -2.8227    0.4356   -0.5471 H         1 <0>         0.0000
     30 H9         -2.2756    1.8834   -1.5429 H         1 <0>         0.0000
     31 H10        -1.4035    2.9796    0.5801 H         1 <0>         0.0000
     32 H11        -1.9624    1.5137    1.5378 H         1 <0>         0.0000
     33 H12        -0.6834   -0.4810   -2.4734 H         1 <0>         0.0000
     34 H13        -1.4776   -1.8689   -1.7435 H         1 <0>         0.0000
     35 H14         1.3232   -0.8416   -1.0017 H         1 <0>         0.0000
     36 H15         0.5628   -2.2357   -0.2854 H         1 <0>         0.0000
     37 H16         0.9750   -1.1817    1.9016 H         1 <0>         0.0000
     38 H17         0.0539    0.2567    2.3685 H         1 <0>         0.0000
     39 H18        -1.3587   -1.9222    0.9072 H         1 <0>         0.0000
@<TRIPOS>BOND
     1    1   12 1
     2    1   17 3
     3    2    4 ar
     4    2    3 ar
     5    2   22 1
     6    3    5 ar
     7    3   23 1
     8    4    6 ar
     9    4   24 1
    10    5    9 ar
    11    5   25 1
    12    6    9 ar
    13    6   26 1
    14    7   18 1
    15    7   19 2
    16    7   27 1
    17    8   18 2
    18    8   20 1
    19    8   28 1
    20    9   13 1
    21   10   11 1
    22   10   12 1
    23   10   29 1
    24   10   30 1
    25   11   12 1
    26   11   31 1
    27   11   32 1
    28   12   16 1
    29   13   14 1
    30   13   33 1
    31   13   34 1
    32   14   16 1
    33   14   35 1
    34   14   36 1
    35   15   16 1
    36   15   20 1
    37   15   37 1
    38   15   38 1
    39   16   21 1
    40   19   20 1
    41   21   39 1
