@<TRIPOS>MOLECULE
*****
   46    47     0     0     0
SMALL
NO_CHARGES

@<TRIPOS>ATOM
      1 C1          0.0604   -1.1269    2.6205 C.ar      1 <0>         0.0000
      2 C2          0.9668    5.3653   -2.1433 C.ar      1 <0>         0.0000
      3 C3          0.4914    0.1623    2.3077 C.ar      1 <0>         0.0000
      4 C4         -0.9558   -1.7230    1.8738 C.ar      1 <0>         0.0000
      5 C5          1.4887    4.1111   -1.8266 C.ar      1 <0>         0.0000
      6 C6         -0.3102    5.4704   -2.6944 C.ar      1 <0>         0.0000
      7 C7         -0.0937    0.8554    1.2481 C.ar      1 <0>         0.0000
      8 C8         -1.5409   -1.0298    0.8142 C.ar      1 <0>         0.0000
      9 C9          0.7335    2.9620   -2.0608 C.ar      1 <0>         0.0000
     10 C10        -1.0655    4.3213   -2.9286 C.ar      1 <0>         0.0000
     11 C11        -1.1099    0.2594    0.5013 C.ar      1 <0>         0.0000
     12 C12        -0.5436    3.0671   -2.6118 C.ar      1 <0>         0.0000
     13 C13         1.0796   -1.0785   -2.7739 C.3       1 <0>         0.0000
     14 C14        -0.6245   -2.4153   -4.0370 C.3       1 <0>         0.0000
     15 C15        -1.7392    1.0059   -0.6393 C.3       1 <0>         0.0000
     16 C16        -1.3561    1.8299   -2.8634 C.3       1 <0>         0.0000
     17 C17        -2.7789   -0.4932   -3.0789 C.3       1 <0>         0.0000
     18 C18        -0.3045   -1.0451   -3.4317 C.3       1 <0>         0.0000
     19 C19        -1.3847   -0.5363   -2.4471 C.3       1 <0>         0.0000
     20 N1         -1.0410    0.7620   -1.9071 N.3       1 <0>         0.0000
     21 O1         -3.3345   -1.8047   -3.0805 O.3       1 <0>         0.0000
     22 H1          0.5150   -1.6662    3.4464 H         1 <0>         0.0000
     23 H2          1.5553    6.2601   -1.9623 H         1 <0>         0.0000
     24 H3          1.2818    0.6271    2.8896 H         1 <0>         0.0000
     25 H4         -1.2922   -2.7264    2.1179 H         1 <0>         0.0000
     26 H5          2.4834    4.0289   -1.3986 H         1 <0>         0.0000
     27 H6         -0.7163    6.4468   -2.9421 H         1 <0>         0.0000
     28 H7          0.2486    1.8594    1.0116 H         1 <0>         0.0000
     29 H8         -2.3320   -1.5023    0.2377 H         1 <0>         0.0000
     30 H9          1.1482    1.9891   -1.8107 H         1 <0>         0.0000
     31 H10        -2.0597    4.4128   -3.3581 H         1 <0>         0.0000
     32 H11         1.0900   -1.7815   -1.9339 H         1 <0>         0.0000
     33 H12         1.3696   -0.0953   -2.3890 H         1 <0>         0.0000
     34 H13         1.8426   -1.4046   -3.4885 H         1 <0>         0.0000
     35 H14        -0.6975   -3.1858   -3.2637 H         1 <0>         0.0000
     36 H15        -1.5871   -2.3882   -4.5596 H         1 <0>         0.0000
     37 H16         0.1368   -2.7263   -4.7598 H         1 <0>         0.0000
     38 H17        -2.7850    0.7058   -0.7669 H         1 <0>         0.0000
     39 H18        -1.7308    2.0853   -0.4547 H         1 <0>         0.0000
     40 H19        -2.4267    2.0483   -2.7844 H         1 <0>         0.0000
     41 H20        -1.1771    1.4404   -3.8711 H         1 <0>         0.0000
     42 H21        -2.7475   -0.1368   -4.1136 H         1 <0>         0.0000
     43 H22        -3.4479    0.1505   -2.4989 H         1 <0>         0.0000
     44 H23        -0.2466   -0.3262   -4.2601 H         1 <0>         0.0000
     45 H24        -1.4208   -1.2087   -1.5805 H         1 <0>         0.0000
     46 H25        -4.2124   -1.7332   -3.4867 H         1 <0>         0.0000
@<TRIPOS>BOND
     1    1    4 ar
     2    1    3 ar
     3    1   22 1
     4    2    6 ar
     5    2    5 ar
     6    2   23 1
     7    3    7 ar
     8    3   24 1
     9    4    8 ar
    10    4   25 1
    11    5    9 ar
    12    5   26 1
    13    6   10 ar
    14    6   27 1
    15    7   11 ar
    16    7   28 1
    17    8   11 ar
    18    8   29 1
    19    9   12 ar
    20    9   30 1
    21   10   12 ar
    22   10   31 1
    23   11   15 1
    24   12   16 1
    25   13   18 1
    26   13   32 1
    27   13   33 1
    28   13   34 1
    29   14   18 1
    30   14   35 1
    31   14   36 1
    32   14   37 1
    33   15   20 1
    34   15   38 1
    35   15   39 1
    36   16   20 1
    37   16   40 1
    38   16   41 1
    39   17   19 1
    40   17   21 1
    41   17   42 1
    42   17   43 1
    43   18   19 1
    44   18   44 1
    45   19   20 1
    46   19   45 1
    47   21   46 1
