@<TRIPOS>MOLECULE
*****
   32    33     0     0     0
SMALL
NO_CHARGES

@<TRIPOS>ATOM
      1 C1          0.5406    2.8192   -0.6907 C.ar      1 <0>         0.0000
      2 C2         -0.5282    2.4945   -1.5440 C.ar      1 <0>         0.0000
      3 C3          0.9570    1.8963    0.2607 C.ar      1 <0>         0.0000
      4 C4         -1.1813    1.2689   -1.4353 C.ar      1 <0>         0.0000
      5 C5          0.3181    0.6497    0.3821 C.ar      1 <0>         0.0000
      6 C6         -0.7636    0.3464   -0.4669 C.ar      1 <0>         0.0000
      7 C7          0.8156   -0.3626    1.3393 C.2       1 <0>         0.0000
      8 C8         -1.7806   -1.0680    4.2366 C.2       1 <0>         0.0000
      9 C9          0.0768   -1.6915    1.3203 C.3       1 <0>         0.0000
     10 C10        -1.3694   -1.5985    0.8244 C.3       1 <0>         0.0000
     11 C11        -2.0650   -1.8359    5.5158 C.3       1 <0>         0.0000
     12 C12        -1.9202   -2.9771    0.4748 C.3       1 <0>         0.0000
     13 C13        -2.2975   -0.8664    1.8243 C.3       1 <0>         0.0000
     14 N1         -2.4123   -1.5366    3.1080 N.am      1 <0>         0.0000
     15 O1          1.8011   -0.1890    2.0437 O.2       1 <0>         0.0000
     16 O2         -1.0330   -0.0949    4.2118 O.2       1 <0>         0.0000
     17 O3         -1.4351   -0.8446   -0.4178 O.3       1 <0>         0.0000
     18 H1          1.0371    3.7812   -0.7790 H         1 <0>         0.0000
     19 H2         -0.8588    3.2082   -2.2944 H         1 <0>         0.0000
     20 H3          1.7877    2.1031    0.9291 H         1 <0>         0.0000
     21 H4         -2.0148    1.0101   -2.0815 H         1 <0>         0.0000
     22 H5          0.6419   -2.3533    0.6511 H         1 <0>         0.0000
     23 H6          0.1178   -2.1284    2.3195 H         1 <0>         0.0000
     24 H7         -1.1133   -2.1292    5.9655 H         1 <0>         0.0000
     25 H8         -2.5686   -1.1679    6.2202 H         1 <0>         0.0000
     26 H9         -2.6822   -2.7270    5.3678 H         1 <0>         0.0000
     27 H10        -2.9518   -2.9013    0.1161 H         1 <0>         0.0000
     28 H11        -1.8952   -3.6312    1.3511 H         1 <0>         0.0000
     29 H12        -1.3167   -3.4365   -0.3126 H         1 <0>         0.0000
     30 H13        -3.2865   -0.7786    1.3631 H         1 <0>         0.0000
     31 H14        -1.9222    0.1392    2.0198 H         1 <0>         0.0000
     32 H15        -3.0597   -2.3068    3.1985 H         1 <0>         0.0000
@<TRIPOS>BOND
     1    1    2 ar
     2    1    3 ar
     3    1   18 1
     4    2    4 ar
     5    2   19 1
     6    3    5 ar
     7    3   20 1
     8    4    6 ar
     9    4   21 1
    10    5    6 ar
    11    5    7 1
    12    6   17 1
    13    7    9 1
    14    7   15 2
    15    8   11 1
    16    8   14 am
    17    8   16 2
    18    9   10 1
    19    9   22 1
    20    9   23 1
    21   10   12 1
    22   10   13 1
    23   10   17 1
    24   11   24 1
    25   11   25 1
    26   11   26 1
    27   12   27 1
    28   12   28 1
    29   12   29 1
    30   13   14 1
    31   13   30 1
    32   13   31 1
    33   14   32 1
