@<TRIPOS>MOLECULE
*****
   27    29     0     0     0
SMALL
NO_CHARGES

@<TRIPOS>ATOM
      1 C1          7.8114   -6.0836   -2.1949 C.ar      1 <0>         0.0000
      2 C2          8.7919   -6.1120   -1.1989 C.ar      1 <0>         0.0000
      3 C3          6.7591   -5.1753   -2.1011 C.ar      1 <0>         0.0000
      4 C4          2.9435   -1.7417    1.8789 C.ar      1 <0>         0.0000
      5 C5          2.0274   -1.1837    2.7598 C.ar      1 <0>         0.0000
      6 C6          8.7221   -5.2248   -0.1227 C.ar      1 <0>         0.0000
      7 C7          0.7412   -0.3713    0.8638 C.ar      1 <0>         0.0000
      8 C8          2.7947   -1.6323    0.4803 C.ar      1 <0>         0.0000
      9 C9          6.6610   -4.2805   -1.0197 C.ar      1 <0>         0.0000
     10 C10         0.9268   -0.4966    2.2388 C.ar      1 <0>         0.0000
     11 C11         1.6719   -0.9377   -0.0122 C.ar      1 <0>         0.0000
     12 C12         7.6659   -4.3147   -0.0375 C.ar      1 <0>         0.0000
     13 C13         5.5112   -3.3583   -0.9873 C.2       1 <0>         0.0000
     14 C14         3.8401   -2.2656   -0.3268 C.2       1 <0>         0.0000
     15 N1          4.7683   -3.0672    0.1340 N.2       1 <0>         0.0000
     16 N2          5.0743   -2.7783   -2.0888 N.2       1 <0>         0.0000
     17 O1          3.9557   -2.0470   -1.6534 O.3       1 <0>         0.0000
     18 Cl1        -0.2419    0.2178    3.3253 Cl        1 <0>         0.0000
     19 Cl2         1.3486   -0.7524   -1.7187 Cl        1 <0>         0.0000
     20 Br1         7.7001   -3.0788    1.4280 Br        1 <0>         0.0000
     21 H1          7.8629   -6.7681   -3.0366 H         1 <0>         0.0000
     22 H2          9.6157   -6.8183   -1.2565 H         1 <0>         0.0000
     23 H3          5.9861   -5.1477   -2.8625 H         1 <0>         0.0000
     24 H4          3.8075   -2.2790    2.2549 H         1 <0>         0.0000
     25 H5          2.1613   -1.2750    3.8324 H         1 <0>         0.0000
     26 H6          9.4889   -5.2292    0.6448 H         1 <0>         0.0000
     27 H7         -0.1187    0.1578    0.4691 H         1 <0>         0.0000
@<TRIPOS>BOND
     1    1    2 ar
     2    1    3 ar
     3    1   21 1
     4    2    6 ar
     5    2   22 1
     6    3    9 ar
     7    3   23 1
     8    4    5 ar
     9    4    8 ar
    10    4   24 1
    11    5   10 ar
    12    5   25 1
    13    6   12 ar
    14    6   26 1
    15    7   10 ar
    16    7   11 ar
    17    7   27 1
    18    8   11 ar
    19    8   14 1
    20    9   12 ar
    21    9   13 1
    22   10   18 1
    23   11   19 1
    24   12   20 1
    25   13   15 1
    26   13   16 2
    27   14   15 2
    28   14   17 1
    29   16   17 1
