@<TRIPOS>MOLECULE
*****
   32    34     0     0     0
SMALL
NO_CHARGES

@<TRIPOS>ATOM
      1 C1          2.8020   -7.8002    5.0767 C.ar      1 <0>         0.0000
      2 C2          1.6327   -7.3544    5.6929 C.ar      1 <0>         0.0000
      3 C3          3.2809   -7.1525    3.9380 C.ar      1 <0>         0.0000
      4 C4          0.9423   -6.2608    5.1704 C.ar      1 <0>         0.0000
      5 C5          2.5906   -6.0588    3.4155 C.ar      1 <0>         0.0000
      6 C6          1.4213   -5.6129    4.0317 C.ar      1 <0>         0.0000
      7 C7          0.6954   -4.4628    3.4823 C.2       1 <0>         0.0000
      8 C8          1.2907   -3.3300    2.7511 C.2       1 <0>         0.0000
      9 C9          0.9700   -0.4471    0.2504 C.3       1 <0>         0.0000
     10 C10         1.2518   -0.2495    1.7365 C.3       1 <0>         0.0000
     11 C11         0.9620   -1.9242   -0.1301 C.3       1 <0>         0.0000
     12 C12         0.2744   -1.0339    2.6089 C.3       1 <0>         0.0000
     13 C13        -0.0326   -2.7168    0.7139 C.3       1 <0>         0.0000
     14 C14         0.1711   -2.5053    2.2130 C.3       1 <0>         0.0000
     15 N1         -0.5828   -4.3026    3.5728 N.2       1 <0>         0.0000
     16 O1          2.4836   -3.1359    2.6660 O.2       1 <0>         0.0000
     17 O2         -0.9457   -3.0916    2.9232 O.3       1 <0>         0.0000
     18 H1          3.3395   -8.6517    5.4835 H         1 <0>         0.0000
     19 H2          1.2596   -7.8590    6.5793 H         1 <0>         0.0000
     20 H3          4.1915   -7.4996    3.4585 H         1 <0>         0.0000
     21 H4          0.0323   -5.9220    5.6589 H         1 <0>         0.0000
     22 H5          2.9726   -5.5614    2.5277 H         1 <0>         0.0000
     23 H6          1.7269    0.0807   -0.3405 H         1 <0>         0.0000
     24 H7         -0.0000   -0.0001    0.0002 H         1 <0>         0.0000
     25 H8          2.2792   -0.5620    1.9572 H         1 <0>         0.0000
     26 H9          1.1878    0.8165    1.9838 H         1 <0>         0.0000
     27 H10         0.7065   -2.0287   -1.1906 H         1 <0>         0.0000
     28 H11         1.9690   -2.3404   -0.0059 H         1 <0>         0.0000
     29 H12         0.5678   -0.9387    3.6623 H         1 <0>         0.0000
     30 H13        -0.7193   -0.5721    2.5378 H         1 <0>         0.0000
     31 H14        -1.0543   -2.4183    0.4432 H         1 <0>         0.0000
     32 H15         0.0402   -3.7818    0.4590 H         1 <0>         0.0000
@<TRIPOS>BOND
     1    1    3 ar
     2    1    2 ar
     3    1   18 1
     4    2    4 ar
     5    2   19 1
     6    3    5 ar
     7    3   20 1
     8    4    6 ar
     9    4   21 1
    10    5    6 ar
    11    5   22 1
    12    6    7 1
    13    7    8 1
    14    7   15 2
    15    8   14 1
    16    8   16 2
    17    9   11 1
    18    9   10 1
    19    9   23 1
    20    9   24 1
    21   10   12 1
    22   10   25 1
    23   10   26 1
    24   11   13 1
    25   11   27 1
    26   11   28 1
    27   12   14 1
    28   12   29 1
    29   12   30 1
    30   13   14 1
    31   13   31 1
    32   13   32 1
    33   14   17 1
    34   15   17 1
