@<TRIPOS>MOLECULE
*****
   47    50     0     0     0
SMALL
NO_CHARGES

@<TRIPOS>ATOM
      1 C1         -3.7220    0.9712   -3.5325 C.ar      1 <0>         0.0000
      2 C2         -3.6737    1.3156   -4.8762 C.ar      1 <0>         0.0000
      3 C3         -0.3387    2.3514   -0.8096 C.ar      1 <0>         0.0000
      4 C4         -2.5508    0.6319   -2.8376 C.ar      1 <0>         0.0000
      5 C5         -0.4547    3.3488    0.1565 C.ar      1 <0>         0.0000
      6 C6         -0.0247    0.8762   -5.6333 C.2       1 <0>         0.0000
      7 C7         -0.0425    1.2198   -6.9355 C.2       1 <0>         0.0000
      8 C8         -2.4364    1.2972   -5.5397 C.ar      1 <0>         0.0000
      9 C9         -1.2515    0.9227   -4.8687 C.ar      1 <0>         0.0000
     10 C10        -0.2408    1.0174   -0.4185 C.ar      1 <0>         0.0000
     11 C11        -0.2624    0.6335    0.9374 C.ar      1 <0>         0.0000
     12 C12        -1.3119    0.6029   -3.4840 C.ar      1 <0>         0.0000
     13 C13        -0.3811    1.6418    1.9113 C.ar      1 <0>         0.0000
     14 C14        -0.4727    2.9854    1.4973 C.ar      1 <0>         0.0000
     15 C15        -2.4051    1.6736   -6.9645 C.2       1 <0>         0.0000
     16 C16         1.0788   -1.4053    0.4061 C.3       1 <0>         0.0000
     17 C17        -0.1399   -0.8672    1.1928 C.3       1 <0>         0.0000
     18 C18        -0.1052   -0.1084   -1.4241 C.3       1 <0>         0.0000
     19 C19         1.1049   -1.0303   -1.0931 C.3       1 <0>         0.0000
     20 C20        -0.0491   -1.3579    2.6430 C.3       1 <0>         0.0000
     21 C21         2.4743   -0.3848   -1.4188 C.3       1 <0>         0.0000
     22 N1         -0.1164    0.2395   -2.8340 N.pl3     1 <0>         0.0000
     23 O1         -3.3563    2.0239   -7.6283 O.2       1 <0>         0.0000
     24 O2         -1.1617    1.6249   -7.5958 O.3       1 <0>         0.0000
     25 O3         -0.4091    1.3145    3.2362 O.3       1 <0>         0.0000
     26 O4          1.0022   -2.2150   -1.8658 O.3       1 <0>         0.0000
     27 F1          3.4929   -1.1898   -1.0601 F         1 <0>         0.0000
     28 F2          2.6260   -0.1415   -2.7551 F         1 <0>         0.0000
     29 F3          2.6476    0.8011   -0.7887 F         1 <0>         0.0000
     30 Cl1        -0.6186    4.2368    2.7335 Cl        1 <0>         0.0000
     31 H1         -4.6680    0.9853   -2.9987 H         1 <0>         0.0000
     32 H2         -4.5623    1.6031   -5.4273 H         1 <0>         0.0000
     33 H3         -0.3343    2.6218   -1.8598 H         1 <0>         0.0000
     34 H4         -2.6172    0.4212   -1.7763 H         1 <0>         0.0000
     35 H5         -0.5335    4.3948   -0.1213 H         1 <0>         0.0000
     36 H6          0.9104    0.5364   -5.2049 H         1 <0>         0.0000
     37 H7          0.8213    1.2041   -7.5910 H         1 <0>         0.0000
     38 H8          1.9810   -1.0444    0.9050 H         1 <0>         0.0000
     39 H9          1.0992   -2.4963    0.4560 H         1 <0>         0.0000
     40 H10        -1.0394   -1.3318    0.7630 H         1 <0>         0.0000
     41 H11        -0.9476   -0.7939   -1.2832 H         1 <0>         0.0000
     42 H12         0.8253   -0.9489    3.1550 H         1 <0>         0.0000
     43 H13         0.0354   -2.4500    2.6406 H         1 <0>         0.0000
     44 H14        -0.9321   -1.0840    3.2213 H         1 <0>         0.0000
     45 H15         0.6800    0.7955   -3.1222 H         1 <0>         0.0000
     46 H16        -0.4845    2.1351    3.7563 H         1 <0>         0.0000
     47 H17         0.7493   -1.9392   -2.7675 H         1 <0>         0.0000
@<TRIPOS>BOND
     1    1    2 ar
     2    1    4 ar
     3    1   31 1
     4    2    8 ar
     5    2   32 1
     6    3    5 ar
     7    3   10 ar
     8    3   33 1
     9    4   12 ar
    10    4   34 1
    11    5   14 ar
    12    5   35 1
    13    6    9 1
    14    6    7 2
    15    6   36 1
    16    7   24 1
    17    7   37 1
    18    8    9 ar
    19    8   15 1
    20    9   12 ar
    21   10   11 ar
    22   10   18 1
    23   11   13 ar
    24   11   17 1
    25   12   22 1
    26   13   14 ar
    27   13   25 1
    28   14   30 1
    29   15   23 2
    30   15   24 1
    31   16   17 1
    32   16   19 1
    33   16   38 1
    34   16   39 1
    35   17   20 1
    36   17   40 1
    37   18   19 1
    38   18   22 1
    39   18   41 1
    40   19   21 1
    41   19   26 1
    42   20   42 1
    43   20   43 1
    44   20   44 1
    45   21   27 1
    46   21   28 1
    47   21   29 1
    48   22   45 1
    49   25   46 1
    50   26   47 1
