@<TRIPOS>MOLECULE
*****
   65    69     0     0     0
SMALL
NO_CHARGES

@<TRIPOS>ATOM
      1 C1         -2.5792   -2.1177   -4.4768 C.ar      1 <0>         0.0000
      2 C2         -0.1369   -2.3771   -4.2857 C.ar      1 <0>         0.0000
      3 C3         -1.4346   -3.5993   -5.9441 C.ar      1 <0>         0.0000
      4 C4         -1.3395   -1.7937   -3.8638 C.ar      1 <0>         0.0000
      5 C5         -2.6389   -3.0223   -5.5279 C.ar      1 <0>         0.0000
      6 C6         -1.2333   -4.5682   -6.9715 C.2       1 <0>         0.0000
      7 C7         -0.1982   -3.2969   -5.3411 C.ar      1 <0>         0.0000
      8 C8          0.1164   -4.8488   -6.9892 C.2       1 <0>         0.0000
      9 C9         -4.8761   -1.7747  -10.3984 C.2       1 <0>         0.0000
     10 C10        -2.4233   -5.0458   -7.7559 C.3       1 <0>         0.0000
     11 C11        -4.1831   -2.4307   -7.4230 C.3       1 <0>         0.0000
     12 C12        -5.2938   -4.3394   -8.6920 C.3       1 <0>         0.0000
     13 C13        -3.1646    0.2746   -0.9654 C.3       1 <0>         0.0000
     14 C14        -2.3314    1.3944   -1.5854 C.3       1 <0>         0.0000
     15 C15        -3.8716   -3.4376   -6.2999 C.3       1 <0>         0.0000
     16 C16        -1.2908   -0.7990   -2.7327 C.3       1 <0>         0.0000
     17 C17        -3.7125   -4.8674   -6.8895 C.3       1 <0>         0.0000
     18 C18        -5.4126   -2.8819   -8.2184 C.3       1 <0>         0.0000
     19 C19         0.9097   -5.7765   -7.8513 C.3       1 <0>         0.0000
     20 C20        -3.4710    0.3783  -12.3800 C.3       1 <0>         0.0000
     21 C21        -7.8137   -0.7689  -11.8257 C.3       1 <0>         0.0000
     22 C22        -5.0516   -6.6259   -7.9473 C.3       1 <0>         0.0000
     23 C23        -4.4918   -0.7479  -12.5712 C.3       1 <0>         0.0000
     24 C24        -6.5390   -0.1132  -11.2759 C.3       1 <0>         0.0000
     25 N1          0.7449   -4.0698   -6.0027 N.pl3     1 <0>         0.0000
     26 N2         -4.9667   -5.2215   -7.5703 N.3       1 <0>         0.0000
     27 N3         -5.7275   -1.9581   -9.3178 N.am      1 <0>         0.0000
     28 N4         -5.3503   -0.9517  -11.4021 N.am      1 <0>         0.0000
     29 O1         -3.7549   -2.2949  -10.4613 O.2       1 <0>         0.0000
     30 S1         -2.3055   -1.3241   -1.2480 S.3       1 <0>         0.0000
     31 S2         -1.8730    0.8653   -3.2702 S.3       1 <0>         0.0000
     32 H1         -3.4830   -1.6470   -4.0990 H         1 <0>         0.0000
     33 H2          0.8003   -2.1162   -3.7990 H         1 <0>         0.0000
     34 H3         -2.5184   -4.4765   -8.6873 H         1 <0>         0.0000
     35 H4         -2.3217   -6.0993   -8.0375 H         1 <0>         0.0000
     36 H5         -4.3707   -1.4404   -6.9943 H         1 <0>         0.0000
     37 H6         -3.3252   -2.3357   -8.0906 H         1 <0>         0.0000
     38 H7         -6.2629   -4.6570   -9.0967 H         1 <0>         0.0000
     39 H8         -4.5648   -4.3967   -9.5125 H         1 <0>         0.0000
     40 H9         -3.2683    0.4126    0.1154 H         1 <0>         0.0000
     41 H10        -4.1584    0.2419   -1.4187 H         1 <0>         0.0000
     42 H11        -2.9070    2.3215   -1.6706 H         1 <0>         0.0000
     43 H12        -1.4341    1.5896   -0.9907 H         1 <0>         0.0000
     44 H13        -4.7330   -3.4773   -5.6222 H         1 <0>         0.0000
     45 H14        -0.2626   -0.6990   -2.3809 H         1 <0>         0.0000
     46 H15        -3.6202   -5.5528   -6.0381 H         1 <0>         0.0000
     47 H16        -6.2742   -2.8322   -7.5424 H         1 <0>         0.0000
     48 H17         1.6206   -5.2345   -8.4878 H         1 <0>         0.0000
     49 H18         1.4813   -6.5001   -7.2564 H         1 <0>         0.0000
     50 H19         0.2404   -6.3374   -8.5076 H         1 <0>         0.0000
     51 H20        -3.9633    1.3327  -12.1615 H         1 <0>         0.0000
     52 H21        -2.8003    0.1350  -11.5521 H         1 <0>         0.0000
     53 H22        -2.8708    0.5090  -13.2876 H         1 <0>         0.0000
     54 H23        -7.6903   -1.0263  -12.8824 H         1 <0>         0.0000
     55 H24        -8.0552   -1.6937  -11.2901 H         1 <0>         0.0000
     56 H25        -8.6690   -0.0902  -11.7353 H         1 <0>         0.0000
     57 H26        -4.7986   -7.2534   -7.0861 H         1 <0>         0.0000
     58 H27        -4.3888   -6.9092   -8.7847 H         1 <0>         0.0000
     59 H28        -6.0795   -6.8617   -8.2449 H         1 <0>         0.0000
     60 H29        -3.9729   -1.6858  -12.7742 H         1 <0>         0.0000
     61 H30        -5.1431   -0.5368  -13.4271 H         1 <0>         0.0000
     62 H31        -6.6718    0.1761  -10.2288 H         1 <0>         0.0000
     63 H32        -6.3499    0.8180  -11.8200 H         1 <0>         0.0000
     64 H33         1.7323   -4.1027   -5.7929 H         1 <0>         0.0000
     65 H34        -6.7137   -1.8253   -9.4893 H         1 <0>         0.0000
@<TRIPOS>BOND
     1    1    4 ar
     2    1    5 ar
     3    1   32 1
     4    2    4 ar
     5    2    7 ar
     6    2   33 1
     7    3    5 ar
     8    3    6 1
     9    3    7 ar
    10    4   16 1
    11    5   15 1
    12    6    8 2
    13    6   10 1
    14    7   25 1
    15    8   19 1
    16    8   25 1
    17    9   27 am
    18    9   28 am
    19    9   29 2
    20   10   17 1
    21   10   34 1
    22   10   35 1
    23   11   15 1
    24   11   18 1
    25   11   36 1
    26   11   37 1
    27   12   18 1
    28   12   26 1
    29   12   38 1
    30   12   39 1
    31   13   14 1
    32   13   30 1
    33   13   40 1
    34   13   41 1
    35   14   31 1
    36   14   42 1
    37   14   43 1
    38   15   17 1
    39   15   44 1
    40   16   31 1
    41   16   30 1
    42   16   45 1
    43   17   26 1
    44   17   46 1
    45   18   27 1
    46   18   47 1
    47   19   48 1
    48   19   49 1
    49   19   50 1
    50   20   23 1
    51   20   51 1
    52   20   52 1
    53   20   53 1
    54   21   24 1
    55   21   54 1
    56   21   55 1
    57   21   56 1
    58   22   26 1
    59   22   57 1
    60   22   58 1
    61   22   59 1
    62   23   28 1
    63   23   60 1
    64   23   61 1
    65   24   28 1
    66   24   62 1
    67   24   63 1
    68   25   64 1
    69   27   65 1
