@<TRIPOS>MOLECULE
*****
   49    53     0     0     0
SMALL
NO_CHARGES

@<TRIPOS>ATOM
      1 C1         -5.2830   -0.7160    2.7180 C.ar      1 <0>         0.0000
      2 C2          2.0226   -0.8383   -0.0611 C.ar      1 <0>         0.0000
      3 C3         -4.2397    0.1974    2.5713 C.ar      1 <0>         0.0000
      4 C4          0.9256   -0.2405    0.5578 C.ar      1 <0>         0.0000
      5 C5         -5.4569   -1.4179    3.9168 C.ar      1 <0>         0.0000
      6 C6          4.7388   -1.4898   -1.2216 C.ar      1 <0>         0.0000
      7 C7          1.8884   -0.8847    2.6869 C.ar      1 <0>         0.0000
      8 C8          4.4892   -3.4709    0.0850 C.ar      1 <0>         0.0000
      9 C9         -3.4988   -0.2874    4.8228 C.ar      1 <0>         0.0000
     10 C10         5.6761   -2.1851   -1.9868 C.ar      1 <0>         0.0000
     11 C11         3.0582   -1.4690    0.6486 C.ar      1 <0>         0.0000
     12 C12         4.1181   -2.1406   -0.1462 C.ar      1 <0>         0.0000
     13 C13         3.0043   -1.4751    2.0680 C.ar      1 <0>         0.0000
     14 C14        -3.3403    0.4234    3.6268 C.ar      1 <0>         0.0000
     15 C15         0.8625   -0.2805    1.9583 C.ar      1 <0>         0.0000
     16 C16        -4.5560   -1.1898    4.9553 C.ar      1 <0>         0.0000
     17 C17         5.4428   -4.0875   -0.7284 C.ar      1 <0>         0.0000
     18 C18         4.0437   -2.0128    2.9529 C.2       1 <0>         0.0000
     19 C19        -1.2800    1.0041    2.2928 C.2       1 <0>         0.0000
     20 C20        -2.5097    2.8787    3.5601 C.3       1 <0>         0.0000
     21 C21        -1.6575    2.1842    4.6033 C.3       1 <0>         0.0000
     22 C22        -2.2168    1.4028    3.4334 C.3       1 <0>         0.0000
     23 C23         5.8999   -5.4989   -0.4495 C.3       1 <0>         0.0000
     24 N1          5.9020   -2.6647    3.7647 N.2       1 <0>         0.0000
     25 N2          6.0326   -3.4565   -1.7645 N.ar      1 <0>         0.0000
     26 N3          5.3347   -2.2313    2.6281 N.2       1 <0>         0.0000
     27 N4          3.8042   -2.2944    4.2550 N.2       1 <0>         0.0000
     28 N5          4.9850   -2.7071    4.7357 N.2       1 <0>         0.0000
     29 N6         -0.2061    0.2770    2.7092 N.am      1 <0>         0.0000
     30 O1         -1.5320    1.3038    1.1244 O.2       1 <0>         0.0000
     31 Cl1        -4.7506   -2.0640    6.4729 Cl        1 <0>         0.0000
     32 H1         -5.9723   -0.8892    1.8956 H         1 <0>         0.0000
     33 H2          2.0619   -0.8483   -1.1474 H         1 <0>         0.0000
     34 H3         -4.0982    0.7338    1.6378 H         1 <0>         0.0000
     35 H4          0.1395    0.2305   -0.0161 H         1 <0>         0.0000
     36 H5         -6.2686   -2.1278    4.0407 H         1 <0>         0.0000
     37 H6          4.5145   -0.4503   -1.4453 H         1 <0>         0.0000
     38 H7          1.8617   -0.9038    3.7738 H         1 <0>         0.0000
     39 H8          4.0521   -4.0186    0.9125 H         1 <0>         0.0000
     40 H9         -2.8044   -0.1482    5.6449 H         1 <0>         0.0000
     41 H10         6.1707   -1.6899   -2.8233 H         1 <0>         0.0000
     42 H11        -3.5209    3.1606    3.8387 H         1 <0>         0.0000
     43 H12        -2.0233    3.5414    2.8511 H         1 <0>         0.0000
     44 H13        -0.5932    2.4014    4.6091 H         1 <0>         0.0000
     45 H14        -2.0896    2.0261    5.5870 H         1 <0>         0.0000
     46 H15         6.1152   -6.0231   -1.3850 H         1 <0>         0.0000
     47 H16         6.8212   -5.4789    0.1447 H         1 <0>         0.0000
     48 H17         5.1526   -6.0601    0.1189 H         1 <0>         0.0000
     49 H18        -0.1466    0.1176    3.7076 H         1 <0>         0.0000
@<TRIPOS>BOND
     1    1    3 ar
     2    1    5 ar
     3    1   32 1
     4    2    4 ar
     5    2   11 ar
     6    2   33 1
     7    3   14 ar
     8    3   34 1
     9    4   15 ar
    10    4   35 1
    11    5   16 ar
    12    5   36 1
    13    6   10 ar
    14    6   12 ar
    15    6   37 1
    16    7   13 ar
    17    7   15 ar
    18    7   38 1
    19    8   12 ar
    20    8   17 ar
    21    8   39 1
    22    9   14 ar
    23    9   16 ar
    24    9   40 1
    25   10   25 ar
    26   10   41 1
    27   11   12 1
    28   11   13 ar
    29   13   18 1
    30   14   22 1
    31   15   29 1
    32   16   31 1
    33   17   23 1
    34   17   25 ar
    35   18   26 2
    36   18   27 1
    37   19   22 1
    38   19   29 am
    39   19   30 2
    40   20   21 1
    41   20   22 1
    42   20   42 1
    43   20   43 1
    44   21   22 1
    45   21   44 1
    46   21   45 1
    47   23   46 1
    48   23   47 1
    49   23   48 1
    50   24   26 1
    51   24   28 1
    52   27   28 2
    53   29   49 1
