@<TRIPOS>MOLECULE
*****
   47    50     0     0     0
SMALL
NO_CHARGES

@<TRIPOS>ATOM
      1 C1         -3.2136    1.6291    2.6939 C.ar      1 <0>         0.0000
      2 C2         -2.7953    2.4973    3.6960 C.ar      1 <0>         0.0000
      3 C3         -0.6781    2.0121   -0.4508 C.ar      1 <0>         0.0000
      4 C4         -2.3102    0.7133    2.1367 C.ar      1 <0>         0.0000
      5 C5         -1.5861    2.4000   -1.4337 C.ar      1 <0>         0.0000
      6 C6          0.8304    1.6011    4.0368 C.2       1 <0>         0.0000
      7 C7          1.1659    2.4742    5.0053 C.2       1 <0>         0.0000
      8 C8         -1.4629    2.4597    4.1338 C.ar      1 <0>         0.0000
      9 C9         -0.5358    1.5554    3.5611 C.ar      1 <0>         0.0000
     10 C10        -0.3212    0.6684   -0.3088 C.ar      1 <0>         0.0000
     11 C11        -0.8515   -0.3174   -1.1483 C.ar      1 <0>         0.0000
     12 C12        -0.9813    0.6631    2.5553 C.ar      1 <0>         0.0000
     13 C13        -1.7495    0.0764   -2.1567 C.ar      1 <0>         0.0000
     14 C14        -2.1130    1.4264   -2.2780 C.ar      1 <0>         0.0000
     15 C15        -1.0505    3.3929    5.1960 C.2       1 <0>         0.0000
     16 C16         0.7965   -2.0664   -0.1914 C.3       1 <0>         0.0000
     17 C17        -0.4770   -1.7845   -1.0341 C.3       1 <0>         0.0000
     18 C18         0.6460    0.2539    0.7755 C.3       1 <0>         0.0000
     19 C19         1.5913   -0.8158    0.1684 C.3       1 <0>         0.0000
     20 C20        -1.6562   -2.6101   -0.4769 C.3       1 <0>         0.0000
     21 C21         2.7581   -1.1620    1.1198 C.3       1 <0>         0.0000
     22 N1         -0.0965   -0.2812    1.9421 N.pl3     1 <0>         0.0000
     23 O1         -1.7639    4.1975    5.7544 O.2       1 <0>         0.0000
     24 O2          0.2882    3.3375    5.5871 O.3       1 <0>         0.0000
     25 O3         -2.2329   -0.8872   -2.9968 O.3       1 <0>         0.0000
     26 O4          2.1941   -0.3222   -1.0221 O.3       1 <0>         0.0000
     27 F1          3.6083   -2.0481    0.5771 F         1 <0>         0.0000
     28 F2          3.4739   -0.0439    1.4263 F         1 <0>         0.0000
     29 F3          2.3438   -1.6888    2.3092 F         1 <0>         0.0000
     30 Cl1        -3.2489    1.8839   -3.5483 Cl        1 <0>         0.0000
     31 H1         -4.2428    1.6488    2.3471 H         1 <0>         0.0000
     32 H2         -3.4751    3.2075    4.1553 H         1 <0>         0.0000
     33 H3         -0.2629    2.7571    0.2223 H         1 <0>         0.0000
     34 H4         -2.6323    0.0230    1.3639 H         1 <0>         0.0000
     35 H5         -1.8846    3.4367   -1.5485 H         1 <0>         0.0000
     36 H6          1.6046    0.9599    3.6326 H         1 <0>         0.0000
     37 H7          2.1622    2.5839    5.4194 H         1 <0>         0.0000
     38 H8          0.5112   -2.5607    0.7386 H         1 <0>         0.0000
     39 H9          1.4571   -2.7444   -0.7372 H         1 <0>         0.0000
     40 H10        -0.2901   -2.1295   -2.0551 H         1 <0>         0.0000
     41 H11         1.2494    1.1324    1.0575 H         1 <0>         0.0000
     42 H12        -1.8760   -2.3042    0.5505 H         1 <0>         0.0000
     43 H13        -1.4002   -3.6754   -0.4684 H         1 <0>         0.0000
     44 H14        -2.5521   -2.4824   -1.0881 H         1 <0>         0.0000
     45 H15         0.5552   -0.6425    2.6312 H         1 <0>         0.0000
     46 H16        -2.8088   -0.4665   -3.6602 H         1 <0>         0.0000
     47 H17         2.4743    0.5980   -0.8823 H         1 <0>         0.0000
@<TRIPOS>BOND
     1    1    2 ar
     2    1    4 ar
     3    1   31 1
     4    2    8 ar
     5    2   32 1
     6    3    5 ar
     7    3   10 ar
     8    3   33 1
     9    4   12 ar
    10    4   34 1
    11    5   14 ar
    12    5   35 1
    13    6    9 1
    14    6    7 2
    15    6   36 1
    16    7   24 1
    17    7   37 1
    18    8    9 ar
    19    8   15 1
    20    9   12 ar
    21   10   11 ar
    22   10   18 1
    23   11   13 ar
    24   11   17 1
    25   12   22 1
    26   13   14 ar
    27   13   25 1
    28   14   30 1
    29   15   23 2
    30   15   24 1
    31   16   17 1
    32   16   19 1
    33   16   38 1
    34   16   39 1
    35   17   20 1
    36   17   40 1
    37   18   19 1
    38   18   22 1
    39   18   41 1
    40   19   21 1
    41   19   26 1
    42   20   42 1
    43   20   43 1
    44   20   44 1
    45   21   27 1
    46   21   28 1
    47   21   29 1
    48   22   45 1
    49   25   46 1
    50   26   47 1
