@<TRIPOS>MOLECULE
*****
   67    70     0     0     0
SMALL
NO_CHARGES

@<TRIPOS>ATOM
      1 C1          8.4967   -5.0600    0.4358 C.ar      1 <0>         0.0000
      2 C2          7.3086   -4.3310    0.5129 C.ar      1 <0>         0.0000
      3 C3          4.7612   -2.6725   -1.6216 C.ar      1 <0>         0.0000
      4 C4          5.2404   -2.1245    0.6748 C.ar      1 <0>         0.0000
      5 C5          3.5844   -1.9275   -1.5533 C.ar      1 <0>         0.0000
      6 C6          4.0624   -1.3899    0.7482 C.ar      1 <0>         0.0000
      7 C7          9.2830   -5.0381   -0.7175 C.ar      1 <0>         0.0000
      8 C8          7.6473   -3.5707   -1.7522 C.ar      1 <0>         0.0000
      9 C9          2.2002    0.8075   -2.4063 C.ar      1 <0>         0.0000
     10 C10        -0.5123    0.5376   -2.9547 C.ar      1 <0>         0.0000
     11 C11         5.6153   -2.7830   -0.5123 C.ar      1 <0>         0.0000
     12 C12         6.8717   -3.5658   -0.5819 C.ar      1 <0>         0.0000
     13 C13         3.2145   -1.2711   -0.3675 C.ar      1 <0>         0.0000
     14 C14         1.3739    0.0818   -1.5307 C.ar      1 <0>         0.0000
     15 C15         0.0053   -0.0534   -1.7981 C.ar      1 <0>         0.0000
     16 C16         8.8446   -4.2931   -1.8222 C.ar      1 <0>         0.0000
     17 C17         1.6705    1.4212   -3.5420 C.ar      1 <0>         0.0000
     18 C18         0.2925    1.2686   -3.8267 C.ar      1 <0>         0.0000
     19 C19         1.9513   -0.4938   -0.2902 C.2       1 <0>         0.0000
     20 C20         0.1705    1.2722    2.0925 C.2       1 <0>         0.0000
     21 C21        -0.8471   -0.8486   -0.8465 C.3       1 <0>         0.0000
     22 C22        -1.0258   -0.1613    0.5145 C.3       1 <0>         0.0000
     23 C23        -1.6103   -1.1326    1.5473 C.3       1 <0>         0.0000
     24 C24         1.3523    2.2020    4.0173 C.3       1 <0>         0.0000
     25 C25         3.7646    2.4261   -4.1110 C.3       1 <0>         0.0000
     26 C26         0.1338    1.4200   -6.1982 C.3       1 <0>         0.0000
     27 C27         8.5892   -6.5764   -4.0813 C.3       1 <0>         0.0000
     28 N1          1.4364   -0.3406    0.8908 N.2       1 <0>         0.0000
     29 N2          0.2572    0.4333    0.9688 N.am      1 <0>         0.0000
     30 N3          9.6301   -4.2266   -3.0098 N.pl3     1 <0>         0.0000
     31 N4          1.3555    1.4871    2.7496 N.am      1 <0>         0.0000
     32 O1         -0.8896    1.8210    2.4026 O.2       1 <0>         0.0000
     33 O2         10.5969   -5.1631   -5.1209 O.2       1 <0>         0.0000
     34 O3         10.9538   -6.4161   -2.9177 O.2       1 <0>         0.0000
     35 O4          2.3940    2.1848   -4.4180 O.3       1 <0>         0.0000
     36 O5         -0.2966    1.8775   -4.9064 O.3       1 <0>         0.0000
     37 S1         10.1134   -5.6382   -3.8246 S.o2      1 <0>         0.0000
     38 H1          8.8234   -5.6477    1.2894 H         1 <0>         0.0000
     39 H2          6.7058   -4.3745    1.4150 H         1 <0>         0.0000
     40 H3          5.0005   -3.2018   -2.5400 H         1 <0>         0.0000
     41 H4          5.8960   -2.1675    1.5400 H         1 <0>         0.0000
     42 H5          2.9356   -1.8731   -2.4217 H         1 <0>         0.0000
     43 H6          3.7896   -0.8911    1.6718 H         1 <0>         0.0000
     44 H7         10.2188   -5.5825   -0.7717 H         1 <0>         0.0000
     45 H8          7.3328   -2.9766   -2.6076 H         1 <0>         0.0000
     46 H9          3.2523    0.9092   -2.1685 H         1 <0>         0.0000
     47 H10        -1.5674    0.4484   -3.1996 H         1 <0>         0.0000
     48 H11        -1.8401   -1.0233   -1.2700 H         1 <0>         0.0000
     49 H12        -0.3958   -1.8358   -0.6886 H         1 <0>         0.0000
     50 H13        -1.6964    0.6919    0.3993 H         1 <0>         0.0000
     51 H14        -0.9133   -1.9557    1.7379 H         1 <0>         0.0000
     52 H15        -2.5500   -1.5577    1.1772 H         1 <0>         0.0000
     53 H16        -1.8169   -0.6145    2.4859 H         1 <0>         0.0000
     54 H17         2.3761    2.5002    4.2583 H         1 <0>         0.0000
     55 H18         0.9505    1.5976    4.8415 H         1 <0>         0.0000
     56 H19         0.7352    3.0963    3.9213 H         1 <0>         0.0000
     57 H20         4.1363    3.0772   -4.9030 H         1 <0>         0.0000
     58 H21         4.3441    1.4945   -4.1036 H         1 <0>         0.0000
     59 H22         3.8714    2.9312   -3.1436 H         1 <0>         0.0000
     60 H23        -0.4767    1.9595   -6.9245 H         1 <0>         0.0000
     61 H24        -0.0455    0.3422   -6.2994 H         1 <0>         0.0000
     62 H25         1.1912    1.6393   -6.3669 H         1 <0>         0.0000
     63 H26         8.8781   -7.5194   -4.5486 H         1 <0>         0.0000
     64 H27         8.1228   -6.7579   -3.1123 H         1 <0>         0.0000
     65 H28         7.9344   -6.0050   -4.7402 H         1 <0>         0.0000
     66 H29         9.3258   -3.5323   -3.6887 H         1 <0>         0.0000
     67 H30         2.0780    0.7994    2.5748 H         1 <0>         0.0000
@<TRIPOS>BOND
     1    1    2 ar
     2    1    7 ar
     3    1   38 1
     4    2   12 ar
     5    2   39 1
     6    3    5 ar
     7    3   11 ar
     8    3   40 1
     9    4    6 ar
    10    4   11 ar
    11    4   41 1
    12    5   13 ar
    13    5   42 1
    14    6   13 ar
    15    6   43 1
    16    7   16 ar
    17    7   44 1
    18    8   12 ar
    19    8   16 ar
    20    8   45 1
    21    9   14 ar
    22    9   17 ar
    23    9   46 1
    24   10   15 ar
    25   10   18 ar
    26   10   47 1
    27   11   12 1
    28   13   19 1
    29   14   15 ar
    30   14   19 1
    31   15   21 1
    32   16   30 1
    33   17   18 ar
    34   17   35 1
    35   18   36 1
    36   19   28 2
    37   20   29 am
    38   20   31 am
    39   20   32 2
    40   21   22 1
    41   21   48 1
    42   21   49 1
    43   22   23 1
    44   22   29 1
    45   22   50 1
    46   23   51 1
    47   23   52 1
    48   23   53 1
    49   24   31 1
    50   24   54 1
    51   24   55 1
    52   24   56 1
    53   25   35 1
    54   25   57 1
    55   25   58 1
    56   25   59 1
    57   26   36 1
    58   26   60 1
    59   26   61 1
    60   26   62 1
    61   27   37 1
    62   27   63 1
    63   27   64 1
    64   27   65 1
    65   28   29 1
    66   30   37 1
    67   30   66 1
    68   31   67 1
    69   33   37 2
    70   34   37 2
