@<TRIPOS>MOLECULE
*****
   66    70     0     0     0
SMALL
NO_CHARGES

@<TRIPOS>ATOM
      1 C1         -1.2267   -1.9043   -5.1267 C.ar      1 <0>         0.0000
      2 C2         -0.1001   -3.4664   -3.5935 C.ar      1 <0>         0.0000
      3 C3         -0.5864   -4.0674   -5.9000 C.ar      1 <0>         0.0000
      4 C4         -0.6892   -2.2222   -3.8503 C.ar      1 <0>         0.0000
      5 C5         -1.1722   -2.8252   -6.1601 C.ar      1 <0>         0.0000
      6 C6         -0.4375   -5.1821   -6.7744 C.2       1 <0>         0.0000
      7 C7         -0.0569   -4.3986   -4.6394 C.ar      1 <0>         0.0000
      8 C8          0.1821   -6.1814   -6.0498 C.2       1 <0>         0.0000
      9 C9          1.2998   -2.1059  -10.8838 C.2       1 <0>         0.0000
     10 C10        -0.9377   -5.0709   -8.1904 C.3       1 <0>         0.0000
     11 C11        -0.5377   -1.9639   -8.4423 C.3       1 <0>         0.0000
     12 C12        -1.5607   -3.0856  -10.5149 C.3       1 <0>         0.0000
     13 C13        -2.1504    1.1470   -2.2435 C.3       1 <0>         0.0000
     14 C14        -0.6577    1.3658   -2.0075 C.3       1 <0>         0.0000
     15 C15        -1.6365   -2.6193   -7.5869 C.3       1 <0>         0.0000
     16 C16        -0.7377   -1.2007   -2.7413 C.3       1 <0>         0.0000
     17 C17        -0.9592   -1.8039   -9.9118 C.3       1 <0>         0.0000
     18 C18        -2.0448   -3.9886   -8.1882 C.3       1 <0>         0.0000
     19 C19         0.5969   -7.5626   -6.4404 C.3       1 <0>         0.0000
     20 C20         4.5618   -2.1818  -10.4346 C.3       1 <0>         0.0000
     21 C21         1.8377    0.1210  -13.2796 C.3       1 <0>         0.0000
     22 C22        -3.2175   -4.9152  -10.2406 C.3       1 <0>         0.0000
     23 C23         3.6055   -2.2852  -11.6239 C.3       1 <0>         0.0000
     24 C24         2.4076   -0.0905  -11.8727 C.3       1 <0>         0.0000
     25 N1          0.4144   -5.6981   -4.7583 N.pl3     1 <0>         0.0000
     26 N2          0.1171   -1.3588  -10.7946 N.am      1 <0>         0.0000
     27 N3          2.3813   -1.4890  -11.4348 N.am      1 <0>         0.0000
     28 N4         -2.5848   -3.7157   -9.5979 N.4       1 <0>         0.0000
     29 O1          1.3204   -3.2885  -10.5000 O.2       1 <0>         0.0000
     30 S1         -2.4796   -0.6604   -2.3390 S.3       1 <0>         0.0000
     31 S2          0.2493    0.2916   -3.1718 S.3       1 <0>         0.0000
     32 H1         -1.6819   -0.9276   -5.2659 H         1 <0>         0.0000
     33 H2          0.3031   -3.6875   -2.6086 H         1 <0>         0.0000
     34 H3         -0.1269   -4.7898   -8.8714 H         1 <0>         0.0000
     35 H4         -1.3495   -6.0228   -8.5400 H         1 <0>         0.0000
     36 H5         -0.3066   -0.9776   -8.0294 H         1 <0>         0.0000
     37 H6          0.3734   -2.5602   -8.3847 H         1 <0>         0.0000
     38 H7         -2.0643   -2.8629  -11.4583 H         1 <0>         0.0000
     39 H8         -0.7780   -3.8193  -10.6884 H         1 <0>         0.0000
     40 H9         -2.7408    1.5498   -1.4155 H         1 <0>         0.0000
     41 H10        -2.4671    1.6240   -3.1737 H         1 <0>         0.0000
     42 H11        -0.3679    2.4009   -2.2114 H         1 <0>         0.0000
     43 H12        -0.3804    1.1191   -0.9791 H         1 <0>         0.0000
     44 H13        -2.5286   -1.9745   -7.5864 H         1 <0>         0.0000
     45 H14        -0.3218   -1.6342   -1.8303 H         1 <0>         0.0000
     46 H15        -1.7282   -1.0226   -9.9639 H         1 <0>         0.0000
     47 H16        -2.9069   -4.3702   -7.6329 H         1 <0>         0.0000
     48 H17         1.6858   -7.6823   -6.4011 H         1 <0>         0.0000
     49 H18         0.1545   -8.3191   -5.7822 H         1 <0>         0.0000
     50 H19         0.2789   -7.7802   -7.4626 H         1 <0>         0.0000
     51 H20         4.8602   -1.1446  -10.2482 H         1 <0>         0.0000
     52 H21         4.0868   -2.5741   -9.5312 H         1 <0>         0.0000
     53 H22         5.4691   -2.7631  -10.6275 H         1 <0>         0.0000
     54 H23         2.3963   -0.4688  -14.0123 H         1 <0>         0.0000
     55 H24         0.7878   -0.1819  -13.3366 H         1 <0>         0.0000
     56 H25         1.9090    1.1752  -13.5657 H         1 <0>         0.0000
     57 H26        -2.4368   -5.6220  -10.5144 H         1 <0>         0.0000
     58 H27        -3.9106   -5.3731   -9.5342 H         1 <0>         0.0000
     59 H28        -3.7505   -4.5922  -11.1355 H         1 <0>         0.0000
     60 H29         3.3103   -3.3224  -11.7828 H         1 <0>         0.0000
     61 H30         4.0863   -1.9319  -12.5415 H         1 <0>         0.0000
     62 H31         1.8962    0.5449  -11.1397 H         1 <0>         0.0000
     63 H32         3.4513    0.2325  -11.8435 H         1 <0>         0.0000
     64 H33         0.8510   -6.2357   -4.0215 H         1 <0>         0.0000
     65 H34         0.1777   -0.3587  -10.9235 H         1 <0>         0.0000
     66 H35        -3.3317   -3.0264   -9.4622 H         1 <0>         0.0000
@<TRIPOS>BOND
     1    1    4 ar
     2    1    5 ar
     3    1   32 1
     4    2    4 ar
     5    2    7 ar
     6    2   33 1
     7    3    5 ar
     8    3    6 1
     9    3    7 ar
    10    4   16 1
    11    5   15 1
    12    6    8 2
    13    6   10 1
    14    7   25 1
    15    8   19 1
    16    8   25 1
    17    9   26 am
    18    9   27 am
    19    9   29 2
    20   10   18 1
    21   10   34 1
    22   10   35 1
    23   11   15 1
    24   11   17 1
    25   11   36 1
    26   11   37 1
    27   12   17 1
    28   12   28 1
    29   12   38 1
    30   12   39 1
    31   13   14 1
    32   13   30 1
    33   13   40 1
    34   13   41 1
    35   14   31 1
    36   14   42 1
    37   14   43 1
    38   15   18 1
    39   15   44 1
    40   16   31 1
    41   16   30 1
    42   16   45 1
    43   17   26 1
    44   17   46 1
    45   18   28 1
    46   18   47 1
    47   19   48 1
    48   19   49 1
    49   19   50 1
    50   20   23 1
    51   20   51 1
    52   20   52 1
    53   20   53 1
    54   21   24 1
    55   21   54 1
    56   21   55 1
    57   21   56 1
    58   22   28 1
    59   22   57 1
    60   22   58 1
    61   22   59 1
    62   23   27 1
    63   23   60 1
    64   23   61 1
    65   24   27 1
    66   24   62 1
    67   24   63 1
    68   25   64 1
    69   26   65 1
    70   28   66 1
