@<TRIPOS>MOLECULE
*****
   57    60     0     0     0
SMALL
NO_CHARGES

@<TRIPOS>ATOM
      1 C1          2.6095    9.0621    5.8065 C.ar      1 <0>         0.0000
      2 C2          0.5158    8.2991    6.7502 C.ar      1 <0>         0.0000
      3 C3         -1.1740    5.1393   -2.1564 C.ar      1 <0>         0.0000
      4 C4          2.6376    7.9560    4.9718 C.ar      1 <0>         0.0000
      5 C5          0.5365    7.1817    5.9136 C.ar      1 <0>         0.0000
      6 C6         -0.9519    4.6070   -0.8855 C.ar      1 <0>         0.0000
      7 C7         -0.5521    8.7000   -1.7961 C.2       1 <0>         0.0000
      8 C8         -0.3966    6.8133    0.0176 C.ar      1 <0>         0.0000
      9 C9         -0.8750    8.6075   -3.1380 C.2       1 <0>         0.0000
     10 C10         0.7677   11.7609    9.1125 C.2       1 <0>         0.0000
     11 C11        -0.6157    7.3742   -1.2562 C.ar      1 <0>         0.0000
     12 C12         1.5458    9.2496    6.7129 C.ar      1 <0>         0.0000
     13 C13        -0.9949    6.5164   -2.3405 C.ar      1 <0>         0.0000
     14 C14         1.6027    7.0017    5.0176 C.ar      1 <0>         0.0000
     15 C15        -0.5673    5.4436    0.1823 C.ar      1 <0>         0.0000
     16 C16         1.9489   12.2473    8.6415 C.2       1 <0>         0.0000
     17 C17         1.5380   10.4188    7.5805 C.2       1 <0>         0.0000
     18 C18        -1.1172    7.5371   -6.0606 C.2       1 <0>         0.0000
     19 C19         2.8111   14.4777    7.8356 C.3       1 <0>         0.0000
     20 C20        -3.1525    6.7467   -4.7772 C.3       1 <0>         0.0000
     21 C21         2.6888   13.4953    9.0125 C.3       1 <0>         0.0000
     22 C22         1.0616    3.9165    3.1002 C.3       1 <0>         0.0000
     23 C23         0.6986    4.9445    4.1610 C.3       1 <0>         0.0000
     24 C24         0.9828    4.4707    1.6826 C.3       1 <0>         0.0000
     25 C25        -1.6163    6.7777   -4.7714 C.3       1 <0>         0.0000
     26 N1          2.4261   11.3762    7.6628 N.2       1 <0>         0.0000
     27 N2         -1.1315    7.2946   -3.4761 N.pl3     1 <0>         0.0000
     28 O1         -0.9307    8.7807   -5.9687 O.co2     1 <0>         0.0000
     29 O2         -1.0375    6.7809   -7.0611 O.co2     1 <0>         0.0000
     30 O3          0.4873   10.5863    8.4443 O.3       1 <0>         0.0000
     31 O4          1.7283    5.9486    4.1688 O.3       1 <0>         0.0000
     32 O5         -0.3691    4.8677    1.4460 O.3       1 <0>         0.0000
     33 H1          3.4051    9.7997    5.7699 H         1 <0>         0.0000
     34 H2         -0.3132    8.4340    7.4382 H         1 <0>         0.0000
     35 H3         -1.4805    4.4965   -2.9764 H         1 <0>         0.0000
     36 H4          3.4487    7.8046    4.2656 H         1 <0>         0.0000
     37 H5         -0.2773    6.4680    5.9613 H         1 <0>         0.0000
     38 H6         -1.0853    3.5449   -0.6965 H         1 <0>         0.0000
     39 H7         -0.2862    9.6087   -1.2704 H         1 <0>         0.0000
     40 H8         -0.1058    7.4261    0.8682 H         1 <0>         0.0000
     41 H9         -0.9201    9.3449   -3.9279 H         1 <0>         0.0000
     42 H10         0.0489   12.0812    9.8515 H         1 <0>         0.0000
     43 H11         3.3107   13.9987    6.9891 H         1 <0>         0.0000
     44 H12         3.3897   15.3617    8.1249 H         1 <0>         0.0000
     45 H13         1.8229   14.8086    7.4994 H         1 <0>         0.0000
     46 H14        -3.5448    7.7680   -4.7292 H         1 <0>         0.0000
     47 H15        -3.5496    6.1815   -3.9246 H         1 <0>         0.0000
     48 H16        -3.4989    6.2847   -5.7063 H         1 <0>         0.0000
     49 H17         2.1809   13.9760    9.8559 H         1 <0>         0.0000
     50 H18         3.6920   13.2190    9.3593 H         1 <0>         0.0000
     51 H19         2.0725    3.5377    3.2903 H         1 <0>         0.0000
     52 H20         0.3665    3.0739    3.1921 H         1 <0>         0.0000
     53 H21        -0.2659    5.4047    3.9229 H         1 <0>         0.0000
     54 H22         0.6428    4.4785    5.1538 H         1 <0>         0.0000
     55 H23         1.2833    3.7022    0.9561 H         1 <0>         0.0000
     56 H24         1.6549    5.3301    1.5627 H         1 <0>         0.0000
     57 H25        -1.2343    5.7584   -4.8548 H         1 <0>         0.0000
@<TRIPOS>BOND
     1    1    4 ar
     2    1   12 ar
     3    1   33 1
     4    2    5 ar
     5    2   12 ar
     6    2   34 1
     7    3    6 ar
     8    3   13 ar
     9    3   35 1
    10    4   14 ar
    11    4   36 1
    12    5   14 ar
    13    5   37 1
    14    6   15 ar
    15    6   38 1
    16    7    9 2
    17    7   11 1
    18    7   39 1
    19    8   11 ar
    20    8   15 ar
    21    8   40 1
    22    9   27 1
    23    9   41 1
    24   10   16 2
    25   10   30 1
    26   10   42 1
    27   11   13 ar
    28   12   17 1
    29   13   27 1
    30   14   31 1
    31   15   32 1
    32   16   21 1
    33   16   26 1
    34   17   26 2
    35   17   30 1
    36   18   25 1
    37   18   28 1
    38   18   29 2
    39   19   21 1
    40   19   43 1
    41   19   44 1
    42   19   45 1
    43   20   25 1
    44   20   46 1
    45   20   47 1
    46   20   48 1
    47   21   49 1
    48   21   50 1
    49   22   23 1
    50   22   24 1
    51   22   51 1
    52   22   52 1
    53   23   31 1
    54   23   53 1
    55   23   54 1
    56   24   32 1
    57   24   55 1
    58   24   56 1
    59   25   27 1
    60   25   57 1
