@<TRIPOS>MOLECULE
*****
   38    38     0     0     0
SMALL
NO_CHARGES

@<TRIPOS>ATOM
      1 C1         -2.0648   -0.5017    2.1156 C.2       1 <0>         0.0000
      2 C2         -0.0977   -0.8724    0.6562 C.3       1 <0>         0.0000
      3 C3          1.2641   -1.5042    0.8948 C.3       1 <0>         0.0000
      4 C4          1.5715   -0.3206    2.9019 C.3       1 <0>         0.0000
      5 C5          0.2117    0.3764    2.7939 C.3       1 <0>         0.0000
      6 C6         -4.2835   -1.5401    3.5947 C.3       1 <0>         0.0000
      7 C7         -4.0700    0.5252    5.0083 C.3       1 <0>         0.0000
      8 C8         -4.6140    0.7327    2.5651 C.3       1 <0>         0.0000
      9 C9         -1.9875    4.1598    1.2070 C.3       1 <0>         0.0000
     10 C10         0.3526    1.8170    2.2958 C.3       1 <0>         0.0000
     11 C11        -3.8566   -0.0732    3.6195 C.3       1 <0>         0.0000
     12 N1         -0.6853   -0.3899    1.9069 N.am      1 <0>         0.0000
     13 O1         -2.8506   -0.9894    1.3052 O.2       1 <0>         0.0000
     14 O2          2.1098   -0.6001    1.6080 O.3       1 <0>         0.0000
     15 O3         -2.4561   -0.0012    3.3293 O.3       1 <0>         0.0000
     16 O4         -0.7337    3.7516    1.7346 O.3       1 <0>         0.0000
     17 O5         -0.9386    2.3878    2.2122 O.3       1 <0>         0.0000
     18 H1          0.0003    0.0001    0.0000 H         1 <0>         0.0000
     19 H2         -0.7672   -1.5839    0.1627 H         1 <0>         0.0000
     20 H3          1.1799   -2.4480    1.4466 H         1 <0>         0.0000
     21 H4          1.7455   -1.7232   -0.0636 H         1 <0>         0.0000
     22 H5          2.2890    0.3162    3.4305 H         1 <0>         0.0000
     23 H6          1.4890   -1.2555    3.4698 H         1 <0>         0.0000
     24 H7         -0.2230    0.4182    3.7986 H         1 <0>         0.0000
     25 H8         -4.1319   -1.9732    2.5995 H         1 <0>         0.0000
     26 H9         -3.7228   -2.1358    4.3223 H         1 <0>         0.0000
     27 H10        -5.3523   -1.6401    3.8157 H         1 <0>         0.0000
     28 H11        -3.7650    1.5776    5.0307 H         1 <0>         0.0000
     29 H12        -3.4545    0.0095    5.7542 H         1 <0>         0.0000
     30 H13        -5.1177    0.4612    5.3192 H         1 <0>         0.0000
     31 H14        -4.3079    1.7849    2.5827 H         1 <0>         0.0000
     32 H15        -4.4429    0.3399    1.5576 H         1 <0>         0.0000
     33 H16        -5.6915    0.7207    2.7652 H         1 <0>         0.0000
     34 H17        -1.9087    5.1815    0.8274 H         1 <0>         0.0000
     35 H18        -2.7476    4.1085    1.9905 H         1 <0>         0.0000
     36 H19        -2.2641    3.4900    0.3893 H         1 <0>         0.0000
     37 H20         0.8165    1.8210    1.3113 H         1 <0>         0.0000
     38 H21         0.9589    2.3895    2.9950 H         1 <0>         0.0000
@<TRIPOS>BOND
     1    1   12 am
     2    1   13 2
     3    1   15 1
     4    2    3 1
     5    2   12 1
     6    2   18 1
     7    2   19 1
     8    3   14 1
     9    3   20 1
    10    3   21 1
    11    4    5 1
    12    4   14 1
    13    4   22 1
    14    4   23 1
    15    5   10 1
    16    5   12 1
    17    5   24 1
    18    6   11 1
    19    6   25 1
    20    6   26 1
    21    6   27 1
    22    7   11 1
    23    7   28 1
    24    7   29 1
    25    7   30 1
    26    8   11 1
    27    8   31 1
    28    8   32 1
    29    8   33 1
    30    9   16 1
    31    9   34 1
    32    9   35 1
    33    9   36 1
    34   10   17 1
    35   10   37 1
    36   10   38 1
    37   11   15 1
    38   16   17 1
