@<TRIPOS>MOLECULE
*****
   47    50     0     0     0
SMALL
NO_CHARGES

@<TRIPOS>ATOM
      1 C1          7.7578   -2.4736    3.0801 C.1       1 <0>         0.0000
      2 C2          7.1804   -6.0852    3.7078 C.ar      1 <0>         0.0000
      3 C3          5.9631   -6.2950    3.0467 C.ar      1 <0>         0.0000
      4 C4          7.7439   -4.8134    3.6989 C.ar      1 <0>         0.0000
      5 C5          5.3234   -5.2487    2.3891 C.ar      1 <0>         0.0000
      6 C6          5.3674   -1.5487    1.4283 C.2       1 <0>         0.0000
      7 C7          4.2604   -1.0839    0.6512 C.2       1 <0>         0.0000
      8 C8          7.1048   -3.7491    3.0366 C.ar      1 <0>         0.0000
      9 C9          5.8704   -3.9481    2.3625 C.ar      1 <0>         0.0000
     10 C10         5.1606   -2.8907    1.6606 C.2       1 <0>         0.0000
     11 C11         3.4412   -2.1609    0.4516 C.2       1 <0>         0.0000
     12 C12        -0.2549    1.1700   -0.3907 C.3       1 <0>         0.0000
     13 C13         0.1490    0.4831   -1.7228 C.3       1 <0>         0.0000
     14 C14        -1.7034   -0.7071    0.5632 C.3       1 <0>         0.0000
     15 C15         0.8438   -0.6849    0.9149 C.3       1 <0>         0.0000
     16 C16        -0.8020   -1.8650   -1.3964 C.3       1 <0>         0.0000
     17 C17        -0.4360    0.1496    0.7454 C.3       1 <0>         0.0000
     18 C18         0.4812   -1.0013   -1.5064 C.3       1 <0>         0.0000
     19 C19        -3.1639   -1.9264   -0.9080 C.3       1 <0>         0.0000
     20 C20         2.1538   -2.3479   -0.2931 C.3       1 <0>         0.0000
     21 N1          8.3151   -1.4508    3.1362 N.1       1 <0>         0.0000
     22 N2         -1.9338   -1.1526   -0.8091 N.3       1 <0>         0.0000
     23 N3          1.4132   -1.1026   -0.3758 N.3       1 <0>         0.0000
     24 O1          3.9700   -3.2647    1.0599 O.3       1 <0>         0.0000
     25 H1          7.6804   -6.9010    4.2213 H         1 <0>         0.0000
     26 H2          5.5100   -7.2829    3.0447 H         1 <0>         0.0000
     27 H3          8.6863   -4.6224    4.2031 H         1 <0>         0.0000
     28 H4          4.3820   -5.4257    1.8820 H         1 <0>         0.0000
     29 H5          6.2046   -0.9596    1.7700 H         1 <0>         0.0000
     30 H6          4.0817   -0.0830    0.2843 H         1 <0>         0.0000
     31 H7          0.5216    1.8822   -0.0905 H         1 <0>         0.0000
     32 H8         -1.1790    1.7413   -0.5214 H         1 <0>         0.0000
     33 H9         -0.6570    0.5659   -2.4562 H         1 <0>         0.0000
     34 H10         1.0348    0.9711   -2.1401 H         1 <0>         0.0000
     35 H11        -1.6606   -1.5619    1.2682 H         1 <0>         0.0000
     36 H12        -2.5743   -0.1063    0.8522 H         1 <0>         0.0000
     37 H13         1.5915   -0.0954    1.4588 H         1 <0>         0.0000
     38 H14         0.6205   -1.5618    1.5464 H         1 <0>         0.0000
     39 H15        -1.1027   -2.1610   -2.4081 H         1 <0>         0.0000
     40 H16        -0.5718   -2.8024   -0.8513 H         1 <0>         0.0000
     41 H17        -0.5753    0.6907    1.6888 H         1 <0>         0.0000
     42 H18         1.0314   -1.3636   -2.3814 H         1 <0>         0.0000
     43 H19        -3.3660   -2.1721   -1.9557 H         1 <0>         0.0000
     44 H20        -4.0045   -1.3345   -0.5308 H         1 <0>         0.0000
     45 H21        -3.1295   -2.8729   -0.3343 H         1 <0>         0.0000
     46 H22         2.3778   -2.6903   -1.3115 H         1 <0>         0.0000
     47 H23         1.5912   -3.1657    0.1954 H         1 <0>         0.0000
@<TRIPOS>BOND
     1    1    8 1
     2    1   21 3
     3    2    3 ar
     4    2    4 ar
     5    2   25 1
     6    3    5 ar
     7    3   26 1
     8    4    8 ar
     9    4   27 1
    10    5    9 ar
    11    5   28 1
    12    6    7 1
    13    6   10 2
    14    6   29 1
    15    7   11 2
    16    7   30 1
    17    8    9 ar
    18    9   10 1
    19   10   24 1
    20   11   20 1
    21   11   24 1
    22   12   13 1
    23   12   17 1
    24   12   31 1
    25   12   32 1
    26   13   18 1
    27   13   33 1
    28   13   34 1
    29   14   17 1
    30   14   22 1
    31   14   35 1
    32   14   36 1
    33   15   17 1
    34   15   23 1
    35   15   37 1
    36   15   38 1
    37   16   18 1
    38   16   22 1
    39   16   39 1
    40   16   40 1
    41   17   41 1
    42   18   23 1
    43   18   42 1
    44   19   22 1
    45   19   43 1
    46   19   44 1
    47   19   45 1
    48   20   23 1
    49   20   46 1
    50   20   47 1
