@<TRIPOS>MOLECULE
*****
   43    45     0     0     0
SMALL
NO_CHARGES

@<TRIPOS>ATOM
      1 C1         -3.2232    2.3934    1.7469 C.ar      1 <0>         0.0000
      2 C2         -3.5512    2.6976    3.0854 C.ar      1 <0>         0.0000
      3 C3         -5.2966    3.3363    0.9798 C.ar      1 <0>         0.0000
      4 C4         -4.0674    2.6927    0.6778 C.ar      1 <0>         0.0000
      5 C5         -4.7524    3.3169    3.4197 C.ar      1 <0>         0.0000
      6 C6         -6.4221    3.8149    0.1974 C.2       1 <0>         0.0000
      7 C7         -5.5981    3.6220    2.3419 C.ar      1 <0>         0.0000
      8 C8         -7.3423    4.3442    1.0829 C.2       1 <0>         0.0000
      9 C9         -6.9841    5.1542   -1.9228 C.2       1 <0>         0.0000
     10 C10        -4.7434    6.0949   -1.2965 C.3       1 <0>         0.0000
     11 C11        -6.4281    7.4679   -2.4569 C.3       1 <0>         0.0000
     12 C12        -3.7483    6.0579   -2.4601 C.3       1 <0>         0.0000
     13 C13        -5.6364    7.5975   -3.7609 C.3       1 <0>         0.0000
     14 C14        -3.6599    2.3106   -0.7273 C.3       1 <0>         0.0000
     15 C15        -5.1437    3.6469    4.8386 C.3       1 <0>         0.0000
     16 C16        -8.6704    4.9866    0.8355 C.3       1 <0>         0.0000
     17 C17        -6.6024    3.8047   -1.3025 C.3       1 <0>         0.0000
     18 N1         -6.8395    4.2315    2.3705 N.pl3     1 <0>         0.0000
     19 N2         -6.1213    6.2129   -1.7683 N.am      1 <0>         0.0000
     20 O1         -8.0553    5.2754   -2.5261 O.2       1 <0>         0.0000
     21 S1         -3.8225    7.5792   -3.4806 S.3       1 <0>         0.0000
     22 H1         -2.2765    1.8979    1.5438 H         1 <0>         0.0000
     23 H2         -2.8504    2.4358    3.8749 H         1 <0>         0.0000
     24 H3         -4.6377    5.2094   -0.6740 H         1 <0>         0.0000
     25 H4         -4.5246    6.9595   -0.6595 H         1 <0>         0.0000
     26 H5         -6.1836    8.3001   -1.7872 H         1 <0>         0.0000
     27 H6         -7.4980    7.4780   -2.6679 H         1 <0>         0.0000
     28 H7         -2.7237    5.9951   -2.0820 H         1 <0>         0.0000
     29 H8         -3.9357    5.1824   -3.0918 H         1 <0>         0.0000
     30 H9         -5.9138    6.7913   -4.4469 H         1 <0>         0.0000
     31 H10        -5.8545    8.5525   -4.2474 H         1 <0>         0.0000
     32 H11        -4.4083    1.6708   -1.2075 H         1 <0>         0.0000
     33 H12        -3.5151    3.1851   -1.3727 H         1 <0>         0.0000
     34 H13        -2.7150    1.7606   -0.7149 H         1 <0>         0.0000
     35 H14        -5.3253    4.7217    4.9681 H         1 <0>         0.0000
     36 H15        -6.0599    3.1212    5.1373 H         1 <0>         0.0000
     37 H16        -4.3563    3.3594    5.5401 H         1 <0>         0.0000
     38 H17        -9.0375    4.7534   -0.1648 H         1 <0>         0.0000
     39 H18        -9.4160    4.6430    1.5621 H         1 <0>         0.0000
     40 H19        -8.6077    6.0794    0.9134 H         1 <0>         0.0000
     41 H20        -5.6971    3.4397   -1.7889 H         1 <0>         0.0000
     42 H21        -7.4081    3.1285   -1.6001 H         1 <0>         0.0000
     43 H22        -7.3294    4.5200    3.2051 H         1 <0>         0.0000
@<TRIPOS>BOND
     1    1    2 ar
     2    1    4 ar
     3    1   22 1
     4    2    5 ar
     5    2   23 1
     6    3    4 ar
     7    3    6 1
     8    3    7 ar
     9    4   14 1
    10    5    7 ar
    11    5   15 1
    12    6    8 2
    13    6   17 1
    14    7   18 1
    15    8   16 1
    16    8   18 1
    17    9   17 1
    18    9   19 am
    19    9   20 2
    20   10   12 1
    21   10   19 1
    22   10   24 1
    23   10   25 1
    24   11   13 1
    25   11   19 1
    26   11   26 1
    27   11   27 1
    28   12   21 1
    29   12   28 1
    30   12   29 1
    31   13   21 1
    32   13   30 1
    33   13   31 1
    34   14   32 1
    35   14   33 1
    36   14   34 1
    37   15   35 1
    38   15   36 1
    39   15   37 1
    40   16   38 1
    41   16   39 1
    42   16   40 1
    43   17   41 1
    44   17   42 1
    45   18   43 1
