@<TRIPOS>MOLECULE
*****
   39    41     0     0     0
SMALL
NO_CHARGES

@<TRIPOS>ATOM
      1 C1          2.2521   -7.7523    2.5680 C.ar      1 <0>         0.0000
      2 C2          2.4157   -8.3036    1.2876 C.ar      1 <0>         0.0000
      3 C3          1.0498   -7.1404    2.9379 C.ar      1 <0>         0.0000
      4 C4          1.3802   -8.2567    0.3451 C.ar      1 <0>         0.0000
      5 C5         -5.5604   -8.9425   -0.3514 C.2       1 <0>         0.0000
      6 C6          0.0182   -7.0900    2.0011 C.ar      1 <0>         0.0000
      7 C7         -4.8030   -8.1084    0.5388 C.2       1 <0>         0.0000
      8 C8          0.2004   -7.6375    0.7352 C.ar      1 <0>         0.0000
      9 C9         -5.5900  -10.2091    0.1725 C.2       1 <0>         0.0000
     10 C10        -4.4076   -8.9075    1.6185 C.2       1 <0>         0.0000
     11 C11        -1.3237   -6.4754    2.2012 C.2       1 <0>         0.0000
     12 C12        -4.5270   -6.7114    0.2194 C.2       1 <0>         0.0000
     13 C13        -6.2049  -11.4608   -0.3683 C.3       1 <0>         0.0000
     14 C14        -3.6959   -8.6003    2.8977 C.3       1 <0>         0.0000
     15 C15        -4.7329  -11.2988    2.2881 C.3       1 <0>         0.0000
     16 C16        -3.3481   -5.9435    0.8426 C.3       1 <0>         0.0000
     17 N1         -4.8838  -10.1750    1.3784 N.pl3     1 <0>         0.0000
     18 N2         -2.1214   -6.7094    1.0825 N.am      1 <0>         0.0000
     19 O1         -1.6918   -5.8633    3.1927 O.2       1 <0>         0.0000
     20 O2         -5.2062   -6.0842   -0.5923 O.2       1 <0>         0.0000
     21 O3         -1.1226   -6.4568   -1.3075 O.2       1 <0>         0.0000
     22 O4         -1.8534   -8.7549   -0.5484 O.2       1 <0>         0.0000
     23 S1         -1.2799   -7.4483   -0.2461 S.o2      1 <0>         0.0000
     24 H1          3.0720   -7.8025    3.2787 H         1 <0>         0.0000
     25 H2          3.3584   -8.7729    1.0211 H         1 <0>         0.0000
     26 H3          0.9037   -6.7074    3.9228 H         1 <0>         0.0000
     27 H4          1.4977   -8.6829   -0.6464 H         1 <0>         0.0000
     28 H5         -5.9882   -8.6205   -1.2906 H         1 <0>         0.0000
     29 H6         -5.4563  -12.2344   -0.5812 H         1 <0>         0.0000
     30 H7         -6.9474  -11.8933    0.3136 H         1 <0>         0.0000
     31 H8         -6.7135  -11.2299   -1.3068 H         1 <0>         0.0000
     32 H9         -4.2027   -9.0639    3.7511 H         1 <0>         0.0000
     33 H10        -2.6624   -8.9702    2.8911 H         1 <0>         0.0000
     34 H11        -3.6624   -7.5302    3.0915 H         1 <0>         0.0000
     35 H12        -3.7177  -11.3292    2.6900 H         1 <0>         0.0000
     36 H13        -5.4420  -11.2393    3.1224 H         1 <0>         0.0000
     37 H14        -4.9112  -12.2291    1.7491 H         1 <0>         0.0000
     38 H15        -3.6394   -5.5419    1.8176 H         1 <0>         0.0000
     39 H16        -3.1401   -5.1016    0.1768 H         1 <0>         0.0000
@<TRIPOS>BOND
     1    1    2 ar
     2    1    3 ar
     3    1   24 1
     4    2    4 ar
     5    2   25 1
     6    3    6 ar
     7    3   26 1
     8    4    8 ar
     9    4   27 1
    10    5    7 1
    11    5    9 2
    12    5   28 1
    13    6    8 ar
    14    6   11 1
    15    7   10 2
    16    7   12 1
    17    8   23 1
    18    9   13 1
    19    9   17 1
    20   10   14 1
    21   10   17 1
    22   11   18 am
    23   11   19 2
    24   12   16 1
    25   12   20 2
    26   13   29 1
    27   13   30 1
    28   13   31 1
    29   14   32 1
    30   14   33 1
    31   14   34 1
    32   15   17 1
    33   15   35 1
    34   15   36 1
    35   15   37 1
    36   16   18 1
    37   16   38 1
    38   16   39 1
    39   18   23 1
    40   21   23 2
    41   22   23 2
