@<TRIPOS>MOLECULE
*****
   40    42     0     0     0
SMALL
NO_CHARGES

@<TRIPOS>ATOM
      1 C1          1.0626    4.0699   -4.1907 C.ar      1 <0>         0.0000
      2 C2          1.0148    5.8109   -2.5344 C.ar      1 <0>         0.0000
      3 C3          1.5536    3.1744   -3.2419 C.ar      1 <0>         0.0000
      4 C4          1.5047    4.9116   -1.5792 C.ar      1 <0>         0.0000
      5 C5          0.7864    5.4068   -3.8550 C.ar      1 <0>         0.0000
      6 C6          1.7849    3.5860   -1.9206 C.ar      1 <0>         0.0000
      7 C7          2.2611    0.1559   -0.6167 C.2       1 <0>         0.0000
      8 C8          1.4479   -2.1748   -0.1401 C.3       1 <0>         0.0000
      9 C9          0.4483   -2.7023    0.8916 C.3       1 <0>         0.0000
     10 C10         0.2195    1.2964   -0.4373 C.3       1 <0>         0.0000
     11 C11        -0.9954   -0.7760    0.6015 C.3       1 <0>         0.0000
     12 C12        -0.0471   -0.2154   -0.4506 C.3       1 <0>         0.0000
     13 C13         0.2769    6.3753   -4.8979 C.3       1 <0>         0.0000
     14 C14        -1.8869   -2.8321    1.5006 C.3       1 <0>         0.0000
     15 C15         2.3327    2.6112   -0.8979 C.3       1 <0>         0.0000
     16 N1          1.2902   -0.7398   -0.2165 N.am      1 <0>         0.0000
     17 N2          1.6053    1.3550   -0.8987 N.am      1 <0>         0.0000
     18 N3         -0.9131   -2.2400    0.5905 N.3       1 <0>         0.0000
     19 O1          3.4670   -0.0551   -0.7039 O.2       1 <0>         0.0000
     20 H1          0.8895    3.7293   -5.2100 H         1 <0>         0.0000
     21 H2          0.8021    6.8375   -2.2433 H         1 <0>         0.0000
     22 H3          1.7547    2.1419   -3.5170 H         1 <0>         0.0000
     23 H4          1.6653    5.2495   -0.5571 H         1 <0>         0.0000
     24 H5          2.4755   -2.3992    0.1537 H         1 <0>         0.0000
     25 H6          1.2533   -2.6423   -1.1172 H         1 <0>         0.0000
     26 H7          0.4515   -3.7970    0.8743 H         1 <0>         0.0000
     27 H8          0.7677   -2.3783    1.9005 H         1 <0>         0.0000
     28 H9         -0.4453    1.8518   -1.1032 H         1 <0>         0.0000
     29 H10         0.1258    1.7091    0.5806 H         1 <0>         0.0000
     30 H11        -0.7284   -0.3585    1.5917 H         1 <0>         0.0000
     31 H12        -2.0259   -0.4804    0.3760 H         1 <0>         0.0000
     32 H13        -0.4037   -0.5282   -1.4451 H         1 <0>         0.0000
     33 H14        -0.5217    5.9300   -5.5003 H         1 <0>         0.0000
     34 H15        -0.1150    7.2875   -4.4390 H         1 <0>         0.0000
     35 H16         1.0784    6.6687   -5.5865 H         1 <0>         0.0000
     36 H17        -2.8957   -2.5123    1.2207 H         1 <0>         0.0000
     37 H18        -1.7174   -2.5522    2.5575 H         1 <0>         0.0000
     38 H19        -1.8452   -3.9234    1.4266 H         1 <0>         0.0000
     39 H20         3.3752    2.3610   -1.1160 H         1 <0>         0.0000
     40 H21         2.3090    3.0725    0.1018 H         1 <0>         0.0000
@<TRIPOS>BOND
     1    1    3 ar
     2    1    5 ar
     3    1   20 1
     4    2    4 ar
     5    2    5 ar
     6    2   21 1
     7    3    6 ar
     8    3   22 1
     9    4    6 ar
    10    4   23 1
    11    5   13 1
    12    6   15 1
    13    7   16 am
    14    7   17 am
    15    7   19 2
    16    8    9 1
    17    8   16 1
    18    8   24 1
    19    8   25 1
    20    9   18 1
    21    9   26 1
    22    9   27 1
    23   10   12 1
    24   10   17 1
    25   10   28 1
    26   10   29 1
    27   11   12 1
    28   11   18 1
    29   11   30 1
    30   11   31 1
    31   12   16 1
    32   12   32 1
    33   13   33 1
    34   13   34 1
    35   13   35 1
    36   14   18 1
    37   14   36 1
    38   14   37 1
    39   14   38 1
    40   15   17 1
    41   15   39 1
    42   15   40 1
