@<TRIPOS>MOLECULE
*****
   35    37     0     0     0
SMALL
NO_CHARGES

@<TRIPOS>ATOM
      1 C1          2.9439    2.0736   -2.4535 C.ar      1 <0>         0.0000
      2 C2          4.2433    1.0128   -0.7057 C.ar      1 <0>         0.0000
      3 C3          5.3632    2.3828   -2.3659 C.ar      1 <0>         0.0000
      4 C4          3.0043    1.2558   -1.3049 C.ar      1 <0>         0.0000
      5 C5          4.1123    2.6189   -2.9609 C.ar      1 <0>         0.0000
      6 C6          5.4192    1.5723   -1.2303 C.ar      1 <0>         0.0000
      7 C7         -0.3158    0.1634   -0.5268 C.2       1 <0>         0.0000
      8 C8          0.3457   -0.4308    0.5237 C.2       1 <0>         0.0000
      9 C9          1.7608    0.6915   -0.7839 C.2       1 <0>         0.0000
     10 C10        -1.7958    0.0353   -0.7173 C.3       1 <0>         0.0000
     11 C11        -0.2936   -1.2498    1.5962 C.3       1 <0>         0.0000
     12 C12        -1.8090   -0.9725    1.5240 C.3       1 <0>         0.0000
     13 C13         7.7940    1.7990   -1.0491 C.3       1 <0>         0.0000
     14 C14         4.0799    3.4962   -4.1850 C.3       1 <0>         0.0000
     15 N1          0.5578    0.8571   -1.3273 N.2       1 <0>         0.0000
     16 N2          1.6746   -0.0929    0.3500 N.pl3     1 <0>         0.0000
     17 N3         -2.2734   -1.0721    0.1331 N.3       1 <0>         0.0000
     18 O1          6.5676    1.2618   -0.5567 O.3       1 <0>         0.0000
     19 F1          2.8350    3.6630   -4.6805 F         1 <0>         0.0000
     20 F2          4.5770    4.7375   -3.9258 F         1 <0>         0.0000
     21 F3          4.8452    2.9855   -5.1890 F         1 <0>         0.0000
     22 H1          1.9826    2.2590   -2.9166 H         1 <0>         0.0000
     23 H2          4.3475    0.3862    0.1756 H         1 <0>         0.0000
     24 H3          6.2538    2.8276   -2.7928 H         1 <0>         0.0000
     25 H4         -2.2831    0.9983   -0.4792 H         1 <0>         0.0000
     26 H5         -2.0248   -0.1969   -1.7626 H         1 <0>         0.0000
     27 H6         -0.1059   -2.3194    1.4382 H         1 <0>         0.0000
     28 H7          0.0833   -0.9891    2.5931 H         1 <0>         0.0000
     29 H8         -2.3481   -1.7153    2.1195 H         1 <0>         0.0000
     30 H9         -2.0067    0.0206    1.9667 H         1 <0>         0.0000
     31 H10         8.5703    1.4311   -0.3775 H         1 <0>         0.0000
     32 H11         7.7846    2.8954   -1.0291 H         1 <0>         0.0000
     33 H12         7.9995    1.4516   -2.0687 H         1 <0>         0.0000
     34 H13         2.4379   -0.3628    0.9552 H         1 <0>         0.0000
     35 H14        -3.2897   -1.0899    0.1178 H         1 <0>         0.0000
@<TRIPOS>BOND
     1    1    4 ar
     2    1    5 ar
     3    1   22 1
     4    2    4 ar
     5    2    6 ar
     6    2   23 1
     7    3    5 ar
     8    3    6 ar
     9    3   24 1
    10    4    9 1
    11    5   14 1
    12    6   18 1
    13    7    8 2
    14    7   10 1
    15    7   15 1
    16    8   11 1
    17    8   16 1
    18    9   15 2
    19    9   16 1
    20   10   17 1
    21   10   25 1
    22   10   26 1
    23   11   12 1
    24   11   27 1
    25   11   28 1
    26   12   17 1
    27   12   29 1
    28   12   30 1
    29   13   18 1
    30   13   31 1
    31   13   32 1
    32   13   33 1
    33   14   19 1
    34   14   20 1
    35   14   21 1
    36   16   34 1
    37   17   35 1
