@<TRIPOS>MOLECULE
*****
   39    41     0     0     0
SMALL
NO_CHARGES

@<TRIPOS>ATOM
      1 C1         -3.1835   -0.9899    2.7267 C.ar      1 <0>         0.0000
      2 C2         -4.5651   -0.7965    2.8777 C.ar      1 <0>         0.0000
      3 C3         -2.6272   -2.2722    2.7858 C.ar      1 <0>         0.0000
      4 C4         -5.4245   -1.8820    3.0914 C.ar      1 <0>         0.0000
      5 C5         -4.4802   -9.7795    1.9887 C.2       1 <0>         0.0000
      6 C6         -3.4793   -3.3553    2.9930 C.ar      1 <0>         0.0000
      7 C7         -4.3509   -8.6365    1.1224 C.2       1 <0>         0.0000
      8 C8         -4.8479   -3.1439    3.1352 C.ar      1 <0>         0.0000
      9 C9         -4.5982  -10.8980    1.2000 C.2       1 <0>         0.0000
     10 C10        -4.4005   -9.1114   -0.1939 C.2       1 <0>         0.0000
     11 C11        -3.0782   -4.7892    3.0729 C.2       1 <0>         0.0000
     12 C12        -4.2078   -7.2437    1.5265 C.2       1 <0>         0.0000
     13 C13        -4.7549  -12.3362    1.5789 C.3       1 <0>         0.0000
     14 C14        -4.3381   -8.3726   -1.4918 C.3       1 <0>         0.0000
     15 C15        -4.7056  -11.3494   -1.2820 C.3       1 <0>         0.0000
     16 C16        -4.2274   -6.9864    3.0508 C.3       1 <0>         0.0000
     17 N1         -4.5412  -10.4756   -0.1304 N.pl3     1 <0>         0.0000
     18 N2         -4.2035   -5.5683    3.3526 N.am      1 <0>         0.0000
     19 O1         -1.9508   -5.2366    2.9515 O.2       1 <0>         0.0000
     20 O2         -4.0595   -6.2959    0.7598 O.2       1 <0>         0.0000
     21 O3         -6.2264   -4.7571    4.7731 O.2       1 <0>         0.0000
     22 O4         -6.5512   -5.0867    2.2995 O.2       1 <0>         0.0000
     23 S1         -5.6908   -4.6937    3.4132 S.o2      1 <0>         0.0000
     24 H1         -2.5398   -0.1305    2.5620 H         1 <0>         0.0000
     25 H2         -4.9763    0.2078    2.8279 H         1 <0>         0.0000
     26 H3         -1.5609   -2.4426    2.6717 H         1 <0>         0.0000
     27 H4         -6.4943   -1.7414    3.2120 H         1 <0>         0.0000
     28 H5         -4.4774   -9.7869    3.0709 H         1 <0>         0.0000
     29 H6         -5.6696  -12.7783    1.1658 H         1 <0>         0.0000
     30 H7         -3.9095  -12.9505    1.2447 H         1 <0>         0.0000
     31 H8         -4.8102  -12.4179    2.6668 H         1 <0>         0.0000
     32 H9         -3.4372   -8.6352   -2.0612 H         1 <0>         0.0000
     33 H10        -5.2067   -8.5944   -2.1232 H         1 <0>         0.0000
     34 H11        -4.3123   -7.3027   -1.2916 H         1 <0>         0.0000
     35 H12        -5.7624  -11.4560   -1.5525 H         1 <0>         0.0000
     36 H13        -4.1643  -10.9431   -2.1371 H         1 <0>         0.0000
     37 H14        -4.3000  -12.3371   -1.0583 H         1 <0>         0.0000
     38 H15        -3.3436   -7.4416    3.5064 H         1 <0>         0.0000
     39 H16        -5.1094   -7.4366    3.5123 H         1 <0>         0.0000
@<TRIPOS>BOND
     1    1    2 ar
     2    1    3 ar
     3    1   24 1
     4    2    4 ar
     5    2   25 1
     6    3    6 ar
     7    3   26 1
     8    4    8 ar
     9    4   27 1
    10    5    7 1
    11    5    9 2
    12    5   28 1
    13    6    8 ar
    14    6   11 1
    15    7   10 2
    16    7   12 1
    17    8   23 1
    18    9   13 1
    19    9   17 1
    20   10   14 1
    21   10   17 1
    22   11   18 am
    23   11   19 2
    24   12   16 1
    25   12   20 2
    26   13   29 1
    27   13   30 1
    28   13   31 1
    29   14   32 1
    30   14   33 1
    31   14   34 1
    32   15   17 1
    33   15   35 1
    34   15   36 1
    35   15   37 1
    36   16   18 1
    37   16   38 1
    38   16   39 1
    39   18   23 1
    40   21   23 2
    41   22   23 2
