@<TRIPOS>MOLECULE
*****
   23    24     0     0     0
SMALL
NO_CHARGES

@<TRIPOS>ATOM
      1 C1         -2.4348    2.2914   -1.3012 C.2       1 <0>         0.0000
      2 C2         -3.3095    1.3556   -0.6739 C.2       1 <0>         0.0000
      3 C3         -1.1815    1.7727   -1.5158 C.2       1 <0>         0.0000
      4 C4         -2.7089    0.1377   -0.4200 C.2       1 <0>         0.0000
      5 C5         -4.5004   -3.3455    1.4407 C.2       1 <0>         0.0000
      6 C6         -6.1908   -4.3852    2.3691 C.2       1 <0>         0.0000
      7 C7         -3.3336   -1.0099    0.2044 C.2       1 <0>         0.0000
      8 N1         -5.5190   -2.5097    1.4622 N.2       1 <0>         0.0000
      9 N2         -6.5982   -3.1861    2.0596 N.2       1 <0>         0.0000
     10 N3         -2.6474   -2.0939    0.3816 N.2       1 <0>         0.0000
     11 N4         -4.8643   -4.5583    2.0045 N.pl3     1 <0>         0.0000
     12 N5         -4.0112   -5.6585    2.1333 N.3       1 <0>         0.0000
     13 N6         -3.2257   -3.1813    0.9688 N.pl3     1 <0>         0.0000
     14 S1         -1.0454    0.1364   -0.9576 S.3       1 <0>         0.0000
     15 S2         -7.0901   -5.6899    3.1394 S.3       1 <0>         0.0000
     16 H1         -2.7204    3.3004   -1.5802 H         1 <0>         0.0000
     17 H2         -4.3435    1.5623   -0.4155 H         1 <0>         0.0000
     18 H3         -0.3282    2.2600   -1.9711 H         1 <0>         0.0000
     19 H4         -4.3764   -0.9094    0.5043 H         1 <0>         0.0000
     20 H5         -4.3954   -6.4536    1.6234 H         1 <0>         0.0000
     21 H6         -3.9121   -5.9040    3.1180 H         1 <0>         0.0000
     22 H7         -2.6090   -3.9781    1.0626 H         1 <0>         0.0000
     23 H8         -8.2170   -4.9571    3.2328 H         1 <0>         0.0000
@<TRIPOS>BOND
     1    1    2 1
     2    1    3 2
     3    1   16 1
     4    2    4 2
     5    2   17 1
     6    3   14 1
     7    3   18 1
     8    4    7 1
     9    4   14 1
    10    5    8 2
    11    5   11 1
    12    5   13 1
    13    6    9 2
    14    6   11 1
    15    6   15 1
    16    7   10 2
    17    7   19 1
    18    8    9 1
    19   10   13 1
    20   11   12 1
    21   12   20 1
    22   12   21 1
    23   13   22 1
    24   15   23 1
