@<TRIPOS>MOLECULE
*****
   25    26     0     0     0
SMALL
NO_CHARGES

@<TRIPOS>ATOM
      1 C1          4.7850   -1.6235   -2.5927 C.ar      1 <0>         0.0000
      2 C2          3.8493   -0.9382   -3.3719 C.ar      1 <0>         0.0000
      3 C3          4.8098   -1.3881   -1.2187 C.ar      1 <0>         0.0000
      4 C4          0.4018   -0.0586    0.6432 C.ar      1 <0>         0.0000
      5 C5          1.4400   -1.2594    2.4434 C.ar      1 <0>         0.0000
      6 C6          2.9768   -0.0442   -2.7401 C.ar      1 <0>         0.0000
      7 C7         -0.7063   -0.8896    0.7959 C.ar      1 <0>         0.0000
      8 C8          1.5035   -0.2369    1.4908 C.ar      1 <0>         0.0000
      9 C9          3.8911   -0.4775   -0.6808 C.ar      1 <0>         0.0000
     10 C10         0.2762   -2.0324    2.4910 C.ar      1 <0>         0.0000
     11 C11         3.8913   -0.2201    0.8018 C.2       1 <0>         0.0000
     12 C12         2.7507    0.6171    1.3734 C.3       1 <0>         0.0000
     13 N1          2.9882    0.1867   -1.4233 N.ar      1 <0>         0.0000
     14 N2         -0.7758   -1.8729    1.7102 N.ar      1 <0>         0.0000
     15 O1          4.7532   -0.7028    1.5221 O.2       1 <0>         0.0000
     16 Br1         0.1813   -3.4553    3.7917 Br        1 <0>         0.0000
     17 H1          5.4780   -2.3264   -3.0473 H         1 <0>         0.0000
     18 H2          3.7905   -1.0887   -4.4461 H         1 <0>         0.0000
     19 H3          5.5096   -1.8865   -0.5560 H         1 <0>         0.0000
     20 H4          0.4165    0.7049   -0.1274 H         1 <0>         0.0000
     21 H5          2.2671   -1.4526    3.1183 H         1 <0>         0.0000
     22 H6          2.2383    0.5068   -3.3201 H         1 <0>         0.0000
     23 H7         -1.5811   -0.7717    0.1594 H         1 <0>         0.0000
     24 H8          2.5537    1.4732    0.7269 H         1 <0>         0.0000
     25 H9          3.0709    0.9598    2.3597 H         1 <0>         0.0000
@<TRIPOS>BOND
     1    1    2 ar
     2    1    3 ar
     3    1   17 1
     4    2    6 ar
     5    2   18 1
     6    3    9 ar
     7    3   19 1
     8    4    7 ar
     9    4    8 ar
    10    4   20 1
    11    5    8 ar
    12    5   10 ar
    13    5   21 1
    14    6   13 ar
    15    6   22 1
    16    7   14 ar
    17    7   23 1
    18    8   12 1
    19    9   11 1
    20    9   13 ar
    21   10   14 ar
    22   10   16 1
    23   11   12 1
    24   11   15 2
    25   12   24 1
    26   12   25 1
