@<TRIPOS>MOLECULE
*****
   34    36     0     0     0
SMALL
NO_CHARGES

@<TRIPOS>ATOM
      1 C1         -0.6600   -2.3305    0.2796 C.ar      1 <0>         0.0000
      2 C2          0.0576   -1.3709   -0.4732 C.ar      1 <0>         0.0000
      3 C3          3.2412   -5.2407    0.3476 C.ar      1 <0>         0.0000
      4 C4         -0.0405   -3.5031    0.6542 C.ar      1 <0>         0.0000
      5 C5          1.3719   -1.5911   -0.8392 C.ar      1 <0>         0.0000
      6 C6          1.9334   -4.9793    0.6904 C.ar      1 <0>         0.0000
      7 C7          3.9700   -4.2938   -0.4020 C.ar      1 <0>         0.0000
      8 C8          1.3104   -3.7633    0.2953 C.ar      1 <0>         0.0000
      9 C9          2.0419   -2.7912   -0.4686 C.ar      1 <0>         0.0000
     10 C10         3.4119   -3.0865   -0.8162 C.ar      1 <0>         0.0000
     11 C11         4.4663    3.2131   -4.4308 C.ar      1 <0>         0.0000
     12 C12         3.3967    2.6019   -3.7261 C.ar      1 <0>         0.0000
     13 C13         4.7119    0.8417   -3.3009 C.ar      1 <0>         0.0000
     14 C14         4.3032   -2.2176   -1.5845 C.2       1 <0>         0.0000
     15 C15         4.3388    4.5615   -5.0778 C.3       1 <0>         0.0000
     16 N1          5.6220    2.5579   -4.5159 N.ar      1 <0>         0.0000
     17 N2          3.5031    1.4184   -3.1563 N.ar      1 <0>         0.0000
     18 N3          5.7684    1.3584   -3.9526 N.ar      1 <0>         0.0000
     19 N4          3.9842   -1.0621   -2.0592 N.2       1 <0>         0.0000
     20 N5          4.9390   -0.3946   -2.7471 N.pl3     1 <0>         0.0000
     21 O1          2.2212    3.2568   -3.6340 O.3       1 <0>         0.0000
     22 H1         -1.6933   -2.1413    0.5592 H         1 <0>         0.0000
     23 H2         -0.4327   -0.4464   -0.7681 H         1 <0>         0.0000
     24 H3          3.7171   -6.1697    0.6492 H         1 <0>         0.0000
     25 H4         -0.5784   -4.2505    1.2328 H         1 <0>         0.0000
     26 H5          1.9057   -0.8472   -1.4145 H         1 <0>         0.0000
     27 H6          1.3588   -5.6996    1.2681 H         1 <0>         0.0000
     28 H7          5.0022   -4.5152   -0.6644 H         1 <0>         0.0000
     29 H8          5.3134   -2.6205   -1.7460 H         1 <0>         0.0000
     30 H9          4.0853    5.3306   -4.3403 H         1 <0>         0.0000
     31 H10         5.2856    4.8205   -5.5552 H         1 <0>         0.0000
     32 H11         3.5434    4.5642   -5.8308 H         1 <0>         0.0000
     33 H12         5.8720   -0.7818   -2.8918 H         1 <0>         0.0000
     34 H13         1.6220    2.6819   -3.1197 H         1 <0>         0.0000
@<TRIPOS>BOND
     1    1    2 ar
     2    1    4 ar
     3    1   22 1
     4    2    5 ar
     5    2   23 1
     6    3    6 ar
     7    3    7 ar
     8    3   24 1
     9    4    8 ar
    10    4   25 1
    11    5    9 ar
    12    5   26 1
    13    6    8 ar
    14    6   27 1
    15    7   10 ar
    16    7   28 1
    17    8    9 ar
    18    9   10 ar
    19   10   14 1
    20   11   12 ar
    21   11   15 1
    22   11   16 ar
    23   12   17 ar
    24   12   21 1
    25   13   17 ar
    26   13   18 ar
    27   13   20 1
    28   14   19 2
    29   14   29 1
    30   15   30 1
    31   15   31 1
    32   15   32 1
    33   16   18 ar
    34   19   20 1
    35   20   33 1
    36   21   34 1
