@<TRIPOS>MOLECULE
*****
   43    45     0     0     0
SMALL
NO_CHARGES

@<TRIPOS>ATOM
      1 C1         -5.2329    4.1041   -5.5381 C.ar      1 <0>         0.0000
      2 C2         -4.0044    4.2164   -6.2228 C.ar      1 <0>         0.0000
      3 C3         -5.2977    3.4552   -4.3058 C.ar      1 <0>         0.0000
      4 C4         -2.8184    3.7035   -5.6946 C.ar      1 <0>         0.0000
      5 C5         -4.1165    2.9256   -3.7782 C.ar      1 <0>         0.0000
      6 C6         -2.8950    3.0644   -4.4523 C.ar      1 <0>         0.0000
      7 C7         -3.8585    2.1788   -2.5359 C.2       1 <0>         0.0000
      8 C8         -0.7099    0.3680   -1.8640 C.2       1 <0>         0.0000
      9 C9          2.2277   -0.9939   -0.4470 C.3       1 <0>         0.0000
     10 C10         0.8815   -1.3331   -1.1100 C.3       1 <0>         0.0000
     11 C11        -0.4347   -0.0675    0.5774 C.3       1 <0>         0.0000
     12 C12         0.6862   -0.5746    1.5019 C.3       1 <0>         0.0000
     13 C13         2.0716   -0.2423    0.9060 C.3       1 <0>         0.0000
     14 C14         0.4649   -0.0502    2.9244 C.3       1 <0>         0.0000
     15 C15         2.2881    1.2653    0.7141 C.3       1 <0>         0.0000
     16 C16        -1.7271    1.4473   -1.4733 C.3       1 <0>         0.0000
     17 N1         -1.8519    2.5186   -3.6865 N.pl3     1 <0>         0.0000
     18 N2         -2.5038    1.8662   -2.6064 N.am      1 <0>         0.0000
     19 N3         -0.1078   -0.2898   -0.8372 N.am      1 <0>         0.0000
     20 O1         -4.6015    1.8784   -1.6003 O.2       1 <0>         0.0000
     21 O2         -0.4445    0.1530   -3.0537 O.2       1 <0>         0.0000
     22 O3          3.0260   -0.7424    1.8622 O.3       1 <0>         0.0000
     23 H1         -6.1312    4.5251   -5.9808 H         1 <0>         0.0000
     24 H2         -3.9782    4.7217   -7.1849 H         1 <0>         0.0000
     25 H3         -6.2326    3.3483   -3.7629 H         1 <0>         0.0000
     26 H4         -1.8750    3.8060   -6.2239 H         1 <0>         0.0000
     27 H5          2.7667   -1.9274   -0.2574 H         1 <0>         0.0000
     28 H6          2.8346   -0.3942   -1.1340 H         1 <0>         0.0000
     29 H7          0.9771   -1.4237   -2.1908 H         1 <0>         0.0000
     30 H8          0.4950   -2.2860   -0.7298 H         1 <0>         0.0000
     31 H9         -1.3754   -0.5696    0.8406 H         1 <0>         0.0000
     32 H10        -0.5780    1.0017    0.7535 H         1 <0>         0.0000
     33 H11         0.6360   -1.6691    1.5485 H         1 <0>         0.0000
     34 H12         0.4689    1.0440    2.9612 H         1 <0>         0.0000
     35 H13         1.2452   -0.4183    3.5926 H         1 <0>         0.0000
     36 H14        -0.5046   -0.3889    3.3063 H         1 <0>         0.0000
     37 H15         2.1701    1.8072    1.6556 H         1 <0>         0.0000
     38 H16         1.5993    1.6816   -0.0270 H         1 <0>         0.0000
     39 H17         3.3040    1.4494    0.3445 H         1 <0>         0.0000
     40 H18        -1.1910    2.3004   -1.0308 H         1 <0>         0.0000
     41 H19        -2.4483    1.0862   -0.7363 H         1 <0>         0.0000
     42 H20        -1.2518    1.8359   -4.1552 H         1 <0>         0.0000
     43 H21         3.9155   -0.5427    1.5281 H         1 <0>         0.0000
@<TRIPOS>BOND
     1    1    2 ar
     2    1    3 ar
     3    1   23 1
     4    2    4 ar
     5    2   24 1
     6    3    5 ar
     7    3   25 1
     8    4    6 ar
     9    4   26 1
    10    5    6 ar
    11    5    7 1
    12    6   17 1
    13    7   18 am
    14    7   20 2
    15    8   16 1
    16    8   19 am
    17    8   21 2
    18    9   10 1
    19    9   13 1
    20    9   27 1
    21    9   28 1
    22   10   19 1
    23   10   29 1
    24   10   30 1
    25   11   12 1
    26   11   19 1
    27   11   31 1
    28   11   32 1
    29   12   13 1
    30   12   14 1
    31   12   33 1
    32   13   15 1
    33   13   22 1
    34   14   34 1
    35   14   35 1
    36   14   36 1
    37   15   37 1
    38   15   38 1
    39   15   39 1
    40   16   18 1
    41   16   40 1
    42   16   41 1
    43   17   18 1
    44   17   42 1
    45   22   43 1
