@<TRIPOS>MOLECULE
*****
   32    33     0     0     0
SMALL
NO_CHARGES

@<TRIPOS>ATOM
      1 C1         -2.5197   -2.1091    2.2264 C.2       1 <0>         0.0000
      2 C2          1.6695    1.3300   -1.6589 C.3       1 <0>         0.0000
      3 C3          0.5668    0.2909   -1.4185 C.3       1 <0>         0.0000
      4 C4          0.2351    0.3068    1.1695 C.3       1 <0>         0.0000
      5 C5         -1.5775    0.3523    0.0957 C.3       1 <0>         0.0000
      6 C6          0.9298    2.6350   -1.3430 C.3       1 <0>         0.0000
      7 C7         -0.1640    0.8859   -0.2153 C.3       1 <0>         0.0000
      8 C8         -4.5712   -3.2284    1.5204 C.3       1 <0>         0.0000
      9 C9         -4.4715   -0.7848    1.3291 C.3       1 <0>         0.0000
     10 C10        -1.6617   -0.8415    2.3521 C.3       1 <0>         0.0000
     11 N1         -0.9713   -0.5483    1.1041 N.3       1 <0>         0.0000
     12 N2         -3.7953   -2.0097    1.7236 N.am      1 <0>         0.0000
     13 O1         -2.0346   -3.1924    2.5593 O.2       1 <0>         0.0000
     14 O2         -0.0633    2.3014   -0.3515 O.3       1 <0>         0.0000
     15 H1          2.4966    1.1777   -0.9570 H         1 <0>         0.0000
     16 H2          2.0751    1.3102   -2.6740 H         1 <0>         0.0000
     17 H3         -0.1114    0.2488   -2.2791 H         1 <0>         0.0000
     18 H4          0.9343   -0.7186   -1.2233 H         1 <0>         0.0000
     19 H5          1.1811   -0.2398    1.2626 H         1 <0>         0.0000
     20 H6          0.1764    1.0923    1.9391 H         1 <0>         0.0000
     21 H7         -2.1912    1.1561    0.5331 H         1 <0>         0.0000
     22 H8         -2.1330   -0.1465   -0.7064 H         1 <0>         0.0000
     23 H9          1.5779    3.4161   -0.9340 H         1 <0>         0.0000
     24 H10         0.4224    3.0321   -2.2325 H         1 <0>         0.0000
     25 H11        -5.4817   -3.2086    2.1327 H         1 <0>         0.0000
     26 H12        -3.9628   -4.0851    1.8042 H         1 <0>         0.0000
     27 H13        -4.8639   -3.3193    0.4667 H         1 <0>         0.0000
     28 H14        -4.6273   -0.7522    0.2426 H         1 <0>         0.0000
     29 H15        -3.9059    0.0964    1.6187 H         1 <0>         0.0000
     30 H16        -5.4546   -0.7311    1.8136 H         1 <0>         0.0000
     31 H17        -2.2186    0.0290    2.7412 H         1 <0>         0.0000
     32 H18        -0.9052   -1.1032    3.0943 H         1 <0>         0.0000
@<TRIPOS>BOND
     1    1   10 1
     2    1   12 am
     3    1   13 2
     4    2    3 1
     5    2    6 1
     6    2   15 1
     7    2   16 1
     8    3    7 1
     9    3   17 1
    10    3   18 1
    11    4    7 1
    12    4   11 1
    13    4   19 1
    14    4   20 1
    15    5    7 1
    16    5   11 1
    17    5   21 1
    18    5   22 1
    19    6   14 1
    20    6   23 1
    21    6   24 1
    22    7   14 1
    23    8   12 1
    24    8   25 1
    25    8   26 1
    26    8   27 1
    27    9   12 1
    28    9   28 1
    29    9   29 1
    30    9   30 1
    31   10   11 1
    32   10   31 1
    33   10   32 1
