@<TRIPOS>MOLECULE
*****
   39    42     0     0     0
SMALL
NO_CHARGES

@<TRIPOS>ATOM
      1 C1          4.3698   -3.6664    6.4009 C.ar      1 <0>         0.0000
      2 C2          5.0148    1.8419   -3.4017 C.ar      1 <0>         0.0000
      3 C3          3.3206   -3.8302    5.5198 C.ar      1 <0>         0.0000
      4 C4          4.2277    1.3678   -2.3533 C.ar      1 <0>         0.0000
      5 C5          5.1620   -2.4946    6.3649 C.ar      1 <0>         0.0000
      6 C6          1.7415   -1.8795    2.7280 C.ar      1 <0>         0.0000
      7 C7          4.6450    1.5279   -4.7140 C.ar      1 <0>         0.0000
      8 C8          2.8246    0.3444   -3.9941 C.ar      1 <0>         0.0000
      9 C9          3.0183   -2.8243    4.5635 C.ar      1 <0>         0.0000
     10 C10         3.0935    0.5937   -2.6394 C.ar      1 <0>         0.0000
     11 C11         3.8060   -1.6291    4.5074 C.ar      1 <0>         0.0000
     12 C12         1.9514   -2.9136    3.6149 C.ar      1 <0>         0.0000
     13 C13         4.8757   -1.5185    5.4411 C.ar      1 <0>         0.0000
     14 C14         2.5915   -0.7482    2.7727 C.ar      1 <0>         0.0000
     15 C15         1.6121    1.0094   -0.4925 C.3       1 <0>         0.0000
     16 C16         2.8030   -0.7270   -0.3689 C.3       1 <0>         0.0000
     17 C17         2.1928    0.0492   -1.5703 C.3       1 <0>         0.0000
     18 C18         2.3547    0.4084    1.8221 C.3       1 <0>         0.0000
     19 N1          3.5681    0.7910   -5.0155 N.ar      1 <0>         0.0000
     20 N2          3.5971   -0.6179    3.6239 N.ar      1 <0>         0.0000
     21 N3          1.8523   -0.0314    0.5332 N.3       1 <0>         0.0000
     22 O1          1.1206   -3.9922    3.5483 O.3       1 <0>         0.0000
     23 F1          5.6333   -0.4048    5.4095 F         1 <0>         0.0000
     24 H1          4.5955   -4.4385    7.1305 H         1 <0>         0.0000
     25 H2          5.8998    2.4432   -3.2122 H         1 <0>         0.0000
     26 H3          2.7357   -4.7459    5.5798 H         1 <0>         0.0000
     27 H4          4.4953    1.5978   -1.3245 H         1 <0>         0.0000
     28 H5          5.9906   -2.3515    7.0516 H         1 <0>         0.0000
     29 H6          0.9423   -1.9290    1.9971 H         1 <0>         0.0000
     30 H7          5.2381    1.8825   -5.5558 H         1 <0>         0.0000
     31 H8          1.9543   -0.2533   -4.2668 H         1 <0>         0.0000
     32 H9          2.2439    1.9015   -0.3590 H         1 <0>         0.0000
     33 H10         0.5677    1.3211   -0.5997 H         1 <0>         0.0000
     34 H11         2.7197   -1.8184   -0.3759 H         1 <0>         0.0000
     35 H12         3.8516   -0.4482   -0.1825 H         1 <0>         0.0000
     36 H13         1.3889   -0.5343   -2.0253 H         1 <0>         0.0000
     37 H14         1.6073    1.0795    2.2667 H         1 <0>         0.0000
     38 H15         3.2965    0.9783    1.7464 H         1 <0>         0.0000
     39 H16         1.3663   -4.6453    4.2216 H         1 <0>         0.0000
@<TRIPOS>BOND
     1    1    3 ar
     2    1    5 ar
     3    1   24 1
     4    2    4 ar
     5    2    7 ar
     6    2   25 1
     7    3    9 ar
     8    3   26 1
     9    4   10 ar
    10    4   27 1
    11    5   13 ar
    12    5   28 1
    13    6   12 ar
    14    6   14 ar
    15    6   29 1
    16    7   19 ar
    17    7   30 1
    18    8   10 ar
    19    8   19 ar
    20    8   31 1
    21    9   11 ar
    22    9   12 ar
    23   10   17 1
    24   11   13 ar
    25   11   20 ar
    26   12   22 1
    27   13   23 1
    28   14   18 1
    29   14   20 ar
    30   15   17 1
    31   15   21 1
    32   15   32 1
    33   15   33 1
    34   16   17 1
    35   16   21 1
    36   16   34 1
    37   16   35 1
    38   17   36 1
    39   18   21 1
    40   18   37 1
    41   18   38 1
    42   22   39 1
