@<TRIPOS>MOLECULE
*****
   32    34     0     0     0
SMALL
NO_CHARGES

@<TRIPOS>ATOM
      1 C1          6.3802   -2.7970    5.0024 C.1       1 <0>         0.0000
      2 C2          8.1388    4.2288    2.1134 C.ar      1 <0>         0.0000
      3 C3          8.1180    4.8241    3.3783 C.ar      1 <0>         0.0000
      4 C4          6.0572   -7.2375    4.2095 C.2       1 <0>         0.0000
      5 C5          8.0573    2.8429    2.0116 C.ar      1 <0>         0.0000
      6 C6          8.0217    4.0259    4.5196 C.ar      1 <0>         0.0000
      7 C7          6.2138   -5.8365    4.3435 C.2       1 <0>         0.0000
      8 C8          6.5502   -7.7215    3.0153 C.2       1 <0>         0.0000
      9 C9          7.9552    2.0357    3.1604 C.ar      1 <0>         0.0000
     10 C10         7.9392    2.6268    4.4461 C.ar      1 <0>         0.0000
     11 C11         6.8313   -5.2510    3.2413 C.2       1 <0>         0.0000
     12 C12         7.8767    0.5783    2.9595 C.2       1 <0>         0.0000
     13 C13         7.4301   -1.4612    3.2404 C.2       1 <0>         0.0000
     14 C14         7.1842   -3.8928    2.9494 C.2       1 <0>         0.0000
     15 C15         6.9978   -2.7701    3.7116 C.2       1 <0>         0.0000
     16 C16         7.8565    1.8327    5.7298 C.3       1 <0>         0.0000
     17 N1          5.8752   -2.8565    6.0511 N.1       1 <0>         0.0000
     18 N2          7.3052   -0.3141    3.8513 N.2       1 <0>         0.0000
     19 N3          8.3372    0.0073    1.8594 N.2       1 <0>         0.0000
     20 O1          8.0348   -1.3597    2.0381 O.3       1 <0>         0.0000
     21 S1          7.2127   -6.4727    2.0380 S.3       1 <0>         0.0000
     22 H1          8.2120    4.8378    1.2166 H         1 <0>         0.0000
     23 H2          8.1770    5.9051    3.4772 H         1 <0>         0.0000
     24 H3          5.5989   -7.8700    4.9621 H         1 <0>         0.0000
     25 H4          8.0637    2.3656    1.0368 H         1 <0>         0.0000
     26 H5          8.0140    4.4969    5.4995 H         1 <0>         0.0000
     27 H6          5.8885   -5.2764    5.2106 H         1 <0>         0.0000
     28 H7          6.5560   -8.7462    2.6653 H         1 <0>         0.0000
     29 H8          7.6683   -3.7227    1.9902 H         1 <0>         0.0000
     30 H9          6.8843    1.3460    5.8391 H         1 <0>         0.0000
     31 H10         8.6037    1.0352    5.7634 H         1 <0>         0.0000
     32 H11         8.0167    2.4905    6.5881 H         1 <0>         0.0000
@<TRIPOS>BOND
     1    1   15 1
     2    1   17 3
     3    2    3 ar
     4    2    5 ar
     5    2   22 1
     6    3    6 ar
     7    3   23 1
     8    4    7 1
     9    4    8 2
    10    4   24 1
    11    5    9 ar
    12    5   25 1
    13    6   10 ar
    14    6   26 1
    15    7   11 2
    16    7   27 1
    17    8   21 1
    18    8   28 1
    19    9   10 ar
    20    9   12 1
    21   10   16 1
    22   11   14 1
    23   11   21 1
    24   12   18 1
    25   12   19 2
    26   13   15 1
    27   13   18 2
    28   13   20 1
    29   14   15 2
    30   14   29 1
    31   16   30 1
    32   16   31 1
    33   16   32 1
    34   19   20 1
