@<TRIPOS>MOLECULE
*****
   16    16     0     0     0
SMALL
NO_CHARGES

@<TRIPOS>ATOM
      1 C1          3.5788   -1.7828    4.1673 C.ar      1 <0>         0.0000
      2 C2          1.1979   -0.4082    4.5628 C.ar      1 <0>         0.0000
      3 C3          2.8777   -1.3162    3.0477 C.ar      1 <0>         0.0000
      4 C4          1.6737   -0.6221    3.2695 C.ar      1 <0>         0.0000
      5 C5          1.9149   -0.8842    5.6626 C.ar      1 <0>         0.0000
      6 C6          3.1179   -1.5789    5.4646 C.ar      1 <0>         0.0000
      7 C7          3.4970   -1.6106    1.7021 C.2       1 <0>         0.0000
      8 O1          4.5461   -2.2130    1.6074 O.2       1 <0>         0.0000
      9 O2          0.9725   -0.1550    2.1785 O.3       1 <0>         0.0000
     10 O3          2.8515   -1.1857    0.5943 O.3       1 <0>         0.0000
     11 Cl1         1.2704   -0.5869    7.2507 Cl        1 <0>         0.0000
     12 Br1         4.1396   -2.2521    6.9267 Br        1 <0>         0.0000
     13 H1          4.5061   -2.3164    3.9890 H         1 <0>         0.0000
     14 H2          0.2680    0.1295    4.7282 H         1 <0>         0.0000
     15 H3          0.1566    0.2923    2.4558 H         1 <0>         0.0000
     16 H4          2.0259   -0.7177    0.8267 H         1 <0>         0.0000
@<TRIPOS>BOND
     1    1    3 ar
     2    1    6 ar
     3    1   13 1
     4    2    4 ar
     5    2    5 ar
     6    2   14 1
     7    3    4 ar
     8    3    7 1
     9    4    9 1
    10    5    6 ar
    11    5   11 1
    12    6   12 1
    13    7    8 2
    14    7   10 1
    15    9   15 1
    16   10   16 1
