@<TRIPOS>MOLECULE
*****
   14    14     0     0     0
SMALL
NO_CHARGES

@<TRIPOS>ATOM
      1 C1         -0.0956    0.0057    0.9423 C.ar      1 <0>         0.0000
      2 C2         -1.4273   -0.3908    2.7313 C.ar      1 <0>         0.0000
      3 C3          0.6857    0.9091    1.6698 C.ar      1 <0>         0.0000
      4 C4          0.2626    1.0829    2.9958 C.ar      1 <0>         0.0000
      5 C5          1.8587    1.6372    1.0528 C.3       1 <0>         0.0000
      6 N1         -1.1474   -0.6509    1.4531 N.ar      1 <0>         0.0000
      7 N2         -0.7654    0.4564    3.5361 N.ar      1 <0>         0.0000
      8 O1          1.6023    3.0230    0.8292 O.3       1 <0>         0.0000
      9 Cl1         1.1317    2.2082    4.0405 Cl        1 <0>         0.0000
     10 H1          0.1432   -0.1956   -0.1016 H         1 <0>         0.0000
     11 H2         -2.2744   -0.9112    3.1724 H         1 <0>         0.0000
     12 H3          2.7522    1.4956    1.6740 H         1 <0>         0.0000
     13 H4          2.0643    1.2111    0.0683 H         1 <0>         0.0000
     14 H5          1.5869    3.4693    1.6915 H         1 <0>         0.0000
@<TRIPOS>BOND
     1    1    3 ar
     2    1    6 ar
     3    1   10 1
     4    2    6 ar
     5    2    7 ar
     6    2   11 1
     7    3    4 ar
     8    3    5 1
     9    4    7 ar
    10    4    9 1
    11    5    8 1
    12    5   12 1
    13    5   13 1
    14    8   14 1
