@<TRIPOS>MOLECULE
*****
   36    39     0     0     0
SMALL
NO_CHARGES

@<TRIPOS>ATOM
      1 C1         -5.3834    3.0262   -1.3707 C.ar      1 <0>         0.0000
      2 C2         -0.5643    3.4243   -1.5729 C.ar      1 <0>         0.0000
      3 C3          1.4901   -1.7123   -3.5603 C.2       1 <0>         0.0000
      4 C4         -4.2633    3.8272   -1.3569 C.ar      1 <0>         0.0000
      5 C5         -1.7947    4.0306   -1.4563 C.ar      1 <0>         0.0000
      6 C6         -5.2518    1.6255   -1.4986 C.ar      1 <0>         0.0000
      7 C7          0.1631   -1.3503   -3.2009 C.2       1 <0>         0.0000
      8 C8         -0.5261    2.0175   -1.7223 C.ar      1 <0>         0.0000
      9 C9          1.6436   -3.0804   -3.3274 C.2       1 <0>         0.0000
     10 C10        -2.9752    3.2438   -1.4776 C.ar      1 <0>         0.0000
     11 C11        -4.0191    1.0039   -1.6248 C.ar      1 <0>         0.0000
     12 C12        -2.8386    1.8222   -1.6236 C.ar      1 <0>         0.0000
     13 C13        -0.4640   -2.5166   -2.7563 C.2       1 <0>         0.0000
     14 C14        -1.7245   -3.0642   -2.2802 C.2       1 <0>         0.0000
     15 C15        -4.0818   -0.5132   -1.7213 C.2       1 <0>         0.0000
     16 C16        -1.5648   -4.5840   -2.2373 C.3       1 <0>         0.0000
     17 C17        -0.0434   -4.8382   -2.3807 C.3       1 <0>         0.0000
     18 N1         -1.6012    1.2531   -1.7513 N.ar      1 <0>         0.0000
     19 N2         -2.8398   -2.5189   -1.9380 N.2       1 <0>         0.0000
     20 N3          0.4544   -3.5457   -2.8526 N.pl3     1 <0>         0.0000
     21 N4         -2.8910   -1.1495   -1.9690 N.am      1 <0>         0.0000
     22 O1         -5.1549   -1.0974   -1.6013 O.2       1 <0>         0.0000
     23 H1         -6.3736    3.4638   -1.2782 H         1 <0>         0.0000
     24 H2          0.3595    3.9946   -1.5561 H         1 <0>         0.0000
     25 H3          2.2534   -1.0558   -3.9590 H         1 <0>         0.0000
     26 H4         -4.3476    4.9065   -1.2521 H         1 <0>         0.0000
     27 H5         -1.8789    5.1094   -1.3453 H         1 <0>         0.0000
     28 H6         -6.1295    0.9873   -1.4940 H         1 <0>         0.0000
     29 H7         -0.2871   -0.3718   -3.2846 H         1 <0>         0.0000
     30 H8          0.4302    1.5047   -1.8221 H         1 <0>         0.0000
     31 H9          2.4970   -3.7295   -3.4705 H         1 <0>         0.0000
     32 H10        -1.9755   -5.0008   -1.3162 H         1 <0>         0.0000
     33 H11        -2.1113   -5.0265   -3.0761 H         1 <0>         0.0000
     34 H12         0.4215   -5.0910   -1.4216 H         1 <0>         0.0000
     35 H13         0.1929   -5.6280   -3.0986 H         1 <0>         0.0000
     36 H14        -2.0441   -0.5709   -1.9811 H         1 <0>         0.0000
@<TRIPOS>BOND
     1    1    4 ar
     2    1    6 ar
     3    1   23 1
     4    2    5 ar
     5    2    8 ar
     6    2   24 1
     7    3    7 1
     8    3    9 2
     9    3   25 1
    10    4   10 ar
    11    4   26 1
    12    5   10 ar
    13    5   27 1
    14    6   11 ar
    15    6   28 1
    16    7   13 2
    17    7   29 1
    18    8   18 ar
    19    8   30 1
    20    9   20 1
    21    9   31 1
    22   10   12 ar
    23   11   12 ar
    24   11   15 1
    25   12   18 ar
    26   13   14 1
    27   13   20 1
    28   14   16 1
    29   14   19 2
    30   15   21 am
    31   15   22 2
    32   16   17 1
    33   16   32 1
    34   16   33 1
    35   17   20 1
    36   17   34 1
    37   17   35 1
    38   19   21 1
    39   21   36 1
