@<TRIPOS>MOLECULE
*****
   39    41     0     0     0
SMALL
NO_CHARGES

@<TRIPOS>ATOM
      1 C1         -6.3234   -4.8639    6.5154 C.ar      1 <0>         0.0000
      2 C2         -6.9184   -4.0616    5.5301 C.ar      1 <0>         0.0000
      3 C3         -5.1597   -5.5916    6.2426 C.ar      1 <0>         0.0000
      4 C4         -6.3634   -3.9665    4.2469 C.ar      1 <0>         0.0000
      5 C5         -3.6522   -8.9437    2.6111 C.2       1 <0>         0.0000
      6 C6         -4.6050   -5.4994    4.9676 C.ar      1 <0>         0.0000
      7 C7         -3.3338   -8.2981    1.3651 C.2       1 <0>         0.0000
      8 C8         -5.2089   -4.6972    4.0036 C.ar      1 <0>         0.0000
      9 C9         -4.5892   -9.9146    2.3530 C.2       1 <0>         0.0000
     10 C10        -4.1154   -8.9008    0.3741 C.2       1 <0>         0.0000
     11 C11        -3.3767   -6.1966    4.4898 C.2       1 <0>         0.0000
     12 C12        -2.4152   -7.1898    1.1473 C.2       1 <0>         0.0000
     13 C13        -5.2382  -10.8960    3.2763 C.3       1 <0>         0.0000
     14 C14        -4.2557   -8.5728   -1.0765 C.3       1 <0>         0.0000
     15 C15        -5.8829  -10.6750    0.3190 C.3       1 <0>         0.0000
     16 C16        -2.0159   -6.3404    2.3720 C.3       1 <0>         0.0000
     17 N1         -4.8654   -9.8761    0.9832 N.pl3     1 <0>         0.0000
     18 N2         -3.1545   -5.8746    3.1597 N.am      1 <0>         0.0000
     19 O1         -2.6690   -6.9437    5.1507 O.2       1 <0>         0.0000
     20 O2         -1.9353   -6.8792    0.0574 O.2       1 <0>         0.0000
     21 O3         -5.0562   -5.4261    1.4200 O.2       1 <0>         0.0000
     22 O4         -3.6120   -3.5037    2.1893 O.2       1 <0>         0.0000
     23 S1         -4.2905   -4.7660    2.4733 S.o2      1 <0>         0.0000
     24 H1         -6.7740   -4.9186    7.5023 H         1 <0>         0.0000
     25 H2         -7.8214   -3.5046    5.7631 H         1 <0>         0.0000
     26 H3         -4.6837   -6.2173    6.9916 H         1 <0>         0.0000
     27 H4         -6.8174   -3.3480    3.4788 H         1 <0>         0.0000
     28 H5         -3.2068   -8.7532    3.5783 H         1 <0>         0.0000
     29 H6         -6.3309  -10.7991    3.2880 H         1 <0>         0.0000
     30 H7         -5.0009  -11.9355    3.0165 H         1 <0>         0.0000
     31 H8         -4.8791  -10.7215    4.2931 H         1 <0>         0.0000
     32 H9         -3.8731   -9.3809   -1.7132 H         1 <0>         0.0000
     33 H10        -5.3034   -8.3990   -1.3481 H         1 <0>         0.0000
     34 H11        -3.6787   -7.6768   -1.3002 H         1 <0>         0.0000
     35 H12        -6.8531  -10.1645    0.3180 H         1 <0>         0.0000
     36 H13        -5.5886  -10.8696   -0.7134 H         1 <0>         0.0000
     37 H14        -5.9923  -11.6329    0.8296 H         1 <0>         0.0000
     38 H15        -1.4368   -5.4869    2.0120 H         1 <0>         0.0000
     39 H16        -1.4002   -6.9269    3.0603 H         1 <0>         0.0000
@<TRIPOS>BOND
     1    1    2 ar
     2    1    3 ar
     3    1   24 1
     4    2    4 ar
     5    2   25 1
     6    3    6 ar
     7    3   26 1
     8    4    8 ar
     9    4   27 1
    10    5    7 1
    11    5    9 2
    12    5   28 1
    13    6    8 ar
    14    6   11 1
    15    7   10 2
    16    7   12 1
    17    8   23 1
    18    9   13 1
    19    9   17 1
    20   10   14 1
    21   10   17 1
    22   11   18 am
    23   11   19 2
    24   12   16 1
    25   12   20 2
    26   13   29 1
    27   13   30 1
    28   13   31 1
    29   14   32 1
    30   14   33 1
    31   14   34 1
    32   15   17 1
    33   15   35 1
    34   15   36 1
    35   15   37 1
    36   16   18 1
    37   16   38 1
    38   16   39 1
    39   18   23 1
    40   21   23 2
    41   22   23 2
