@<TRIPOS>MOLECULE
*****
   43    45     0     0     0
SMALL
NO_CHARGES

@<TRIPOS>ATOM
      1 C1         -3.3025   -1.2298    8.1262 C.ar      1 <0>         0.0000
      2 C2         -3.8276   -2.5121    7.8636 C.ar      1 <0>         0.0000
      3 C3         -2.2619   -0.7209    7.3502 C.ar      1 <0>         0.0000
      4 C4         -3.3430   -3.3057    6.8217 C.ar      1 <0>         0.0000
      5 C5         -1.7626   -1.5181    6.3170 C.ar      1 <0>         0.0000
      6 C6         -2.3091   -2.7763    6.0437 C.ar      1 <0>         0.0000
      7 C7         -0.6916   -1.2806    5.3408 C.2       1 <0>         0.0000
      8 C8         -1.2353   -1.6401    2.3740 C.2       1 <0>         0.0000
      9 C9         -1.2625    0.7138   -0.0359 C.3       1 <0>         0.0000
     10 C10        -1.8558   -0.6752    0.2186 C.3       1 <0>         0.0000
     11 C11         0.3807   -1.6352    0.4498 C.3       1 <0>         0.0000
     12 C12         1.0685   -0.2694    0.2355 C.3       1 <0>         0.0000
     13 C13         0.1503    0.6355   -0.6331 C.3       1 <0>         0.0000
     14 C14         1.4999    0.3598    1.5684 C.3       1 <0>         0.0000
     15 C15         0.7304    2.0369   -0.8419 C.3       1 <0>         0.0000
     16 C16        -0.1901   -2.3982    3.2256 C.3       1 <0>         0.0000
     17 N1         -1.6874   -3.3493    4.9164 N.pl3     1 <0>         0.0000
     18 N2         -0.5915   -2.4818    4.6119 N.am      1 <0>         0.0000
     19 N3         -0.9446   -1.4725    1.0479 N.am      1 <0>         0.0000
     20 O1          0.0045   -0.2918    5.1278 O.2       1 <0>         0.0000
     21 O2         -2.2793   -1.2457    2.8886 O.2       1 <0>         0.0000
     22 O3         -0.0253    0.0028   -1.9250 O.3       1 <0>         0.0000
     23 H1         -3.7160   -0.6400    8.9394 H         1 <0>         0.0000
     24 H2         -4.6388   -2.8895    8.4809 H         1 <0>         0.0000
     25 H3         -1.8375    0.2620    7.5340 H         1 <0>         0.0000
     26 H4         -3.7688   -4.2839    6.6150 H         1 <0>         0.0000
     27 H5         -1.9045    1.2679   -0.7289 H         1 <0>         0.0000
     28 H6         -1.2306    1.2703    0.9057 H         1 <0>         0.0000
     29 H7         -2.8101   -0.6040    0.7381 H         1 <0>         0.0000
     30 H8         -2.0023   -1.1999   -0.7306 H         1 <0>         0.0000
     31 H9          0.2532   -2.1318   -0.5173 H         1 <0>         0.0000
     32 H10         1.0044   -2.2809    1.0681 H         1 <0>         0.0000
     33 H11         1.9769   -0.4588   -0.3562 H         1 <0>         0.0000
     34 H12         0.6562    0.5575    2.2351 H         1 <0>         0.0000
     35 H13         2.0330    1.3013    1.4143 H         1 <0>         0.0000
     36 H14         2.1837   -0.3100    2.1005 H         1 <0>         0.0000
     37 H15         1.7611    1.9856   -1.2167 H         1 <0>         0.0000
     38 H16         0.7397    2.6195    0.0827 H         1 <0>         0.0000
     39 H17         0.1236    2.5727   -1.5779 H         1 <0>         0.0000
     40 H18         0.7639   -1.8707    3.2175 H         1 <0>         0.0000
     41 H19        -0.0254   -3.4045    2.8300 H         1 <0>         0.0000
     42 H20        -1.3311   -4.2877    5.0994 H         1 <0>         0.0000
     43 H21         0.8321    0.0175   -2.3799 H         1 <0>         0.0000
@<TRIPOS>BOND
     1    1    2 ar
     2    1    3 ar
     3    1   23 1
     4    2    4 ar
     5    2   24 1
     6    3    5 ar
     7    3   25 1
     8    4    6 ar
     9    4   26 1
    10    5    6 ar
    11    5    7 1
    12    6   17 1
    13    7   18 am
    14    7   20 2
    15    8   16 1
    16    8   19 am
    17    8   21 2
    18    9   10 1
    19    9   13 1
    20    9   27 1
    21    9   28 1
    22   10   19 1
    23   10   29 1
    24   10   30 1
    25   11   12 1
    26   11   19 1
    27   11   31 1
    28   11   32 1
    29   12   13 1
    30   12   14 1
    31   12   33 1
    32   13   15 1
    33   13   22 1
    34   14   34 1
    35   14   35 1
    36   14   36 1
    37   15   37 1
    38   15   38 1
    39   15   39 1
    40   16   18 1
    41   16   40 1
    42   16   41 1
    43   17   18 1
    44   17   42 1
    45   22   43 1
