@<TRIPOS>MOLECULE
*****
   47    50     0     0     0
SMALL
NO_CHARGES

@<TRIPOS>ATOM
      1 C1          5.6461   -1.6961   -6.0789 C.1       1 <0>         0.0000
      2 C2          4.1255   -5.0001   -6.8147 C.ar      1 <0>         0.0000
      3 C3          3.2156   -5.1333   -5.7577 C.ar      1 <0>         0.0000
      4 C4          4.9114   -3.8548   -6.8902 C.ar      1 <0>         0.0000
      5 C5          3.0964   -4.1361   -4.7944 C.ar      1 <0>         0.0000
      6 C6          4.2835   -0.7303   -3.5270 C.2       1 <0>         0.0000
      7 C7          3.6539   -0.2435   -2.3388 C.2       1 <0>         0.0000
      8 C8          4.7980   -2.8411   -5.9210 C.ar      1 <0>         0.0000
      9 C9          3.8799   -2.9636   -4.8442 C.ar      1 <0>         0.0000
     10 C10         3.7156   -1.9526   -3.8116 C.2       1 <0>         0.0000
     11 C11         2.7393   -1.1893   -1.9633 C.2       1 <0>         0.0000
     12 C12         0.5466    2.4326    0.7222 C.3       1 <0>         0.0000
     13 C13         0.6661    2.2662   -0.8161 C.3       1 <0>         0.0000
     14 C14        -1.4823    0.9120    1.0621 C.3       1 <0>         0.0000
     15 C15         0.8990   -0.0443    1.0655 C.3       1 <0>         0.0000
     16 C16        -0.9560    0.3441   -1.2651 C.3       1 <0>         0.0000
     17 C17        -0.0004    1.1617    1.3959 C.3       1 <0>         0.0000
     18 C18         0.5290    0.7896   -1.2155 C.3       1 <0>         0.0000
     19 C19        -3.2268    0.8099   -0.5880 C.3       1 <0>         0.0000
     20 C20         1.7872   -1.3000   -0.8128 C.3       1 <0>         0.0000
     21 N1          6.3492   -0.7793   -6.2371 N.1       1 <0>         0.0000
     22 N2         -1.8178    1.0888   -0.3487 N.3       1 <0>         0.0000
     23 N3          1.3929    0.0069   -0.3158 N.3       1 <0>         0.0000
     24 O1          2.7610   -2.2313   -2.8476 O.3       1 <0>         0.0000
     25 H1          4.2192   -5.7778   -7.5669 H         1 <0>         0.0000
     26 H2          2.5948   -6.0224   -5.6849 H         1 <0>         0.0000
     27 H3          5.6243   -3.7254   -7.6987 H         1 <0>         0.0000
     28 H4          2.3885   -4.2529   -3.9821 H         1 <0>         0.0000
     29 H5          5.0561   -0.2337   -4.0939 H         1 <0>         0.0000
     30 H6          3.8415    0.6876   -1.8229 H         1 <0>         0.0000
     31 H7          1.5326    2.6469    1.1488 H         1 <0>         0.0000
     32 H8         -0.0979    3.2832    0.9657 H         1 <0>         0.0000
     33 H9         -0.1014    2.8524   -1.3270 H         1 <0>         0.0000
     34 H10         1.6436    2.6236   -1.1539 H         1 <0>         0.0000
     35 H11        -1.7597   -0.0993    1.4232 H         1 <0>         0.0000
     36 H12        -2.0943    1.6247    1.6286 H         1 <0>         0.0000
     37 H13         1.7661   -0.0552    1.7394 H         1 <0>         0.0000
     38 H14         0.3333   -0.9716    1.2624 H         1 <0>         0.0000
     39 H15        -1.3338    0.5302   -2.2765 H         1 <0>         0.0000
     40 H16        -1.0249   -0.7506   -1.1050 H         1 <0>         0.0000
     41 H17         0.0393    1.2921    2.4837 H         1 <0>         0.0000
     42 H18         0.9370    0.6574   -2.2211 H         1 <0>         0.0000
     43 H19        -3.4814    1.0404   -1.6276 H         1 <0>         0.0000
     44 H20        -3.8437    1.4418    0.0596 H         1 <0>         0.0000
     45 H21        -3.5004   -0.2455   -0.3933 H         1 <0>         0.0000
     46 H22         0.9369   -1.9383   -1.1169 H         1 <0>         0.0000
     47 H23         2.2848   -1.8335    0.0077 H         1 <0>         0.0000
@<TRIPOS>BOND
     1    1    8 1
     2    1   21 3
     3    2    3 ar
     4    2    4 ar
     5    2   25 1
     6    3    5 ar
     7    3   26 1
     8    4    8 ar
     9    4   27 1
    10    5    9 ar
    11    5   28 1
    12    6    7 1
    13    6   10 2
    14    6   29 1
    15    7   11 2
    16    7   30 1
    17    8    9 ar
    18    9   10 1
    19   10   24 1
    20   11   20 1
    21   11   24 1
    22   12   13 1
    23   12   17 1
    24   12   31 1
    25   12   32 1
    26   13   18 1
    27   13   33 1
    28   13   34 1
    29   14   17 1
    30   14   22 1
    31   14   35 1
    32   14   36 1
    33   15   17 1
    34   15   23 1
    35   15   37 1
    36   15   38 1
    37   16   18 1
    38   16   22 1
    39   16   39 1
    40   16   40 1
    41   17   41 1
    42   18   23 1
    43   18   42 1
    44   19   22 1
    45   19   43 1
    46   19   44 1
    47   19   45 1
    48   20   23 1
    49   20   46 1
    50   20   47 1
