@<TRIPOS>MOLECULE
*****
   38    40     0     0     0
SMALL
NO_CHARGES

@<TRIPOS>ATOM
      1 C1         -0.5146   -4.2686   -5.1021 C.2       1 <0>         0.0000
      2 C2          0.9493    0.5201   -0.9521 C.2       1 <0>         0.0000
      3 C3         -0.2048   -0.2501   -0.8581 C.2       1 <0>         0.0000
      4 C4         -1.1843   -2.1569   -5.2318 C.2       1 <0>         0.0000
      5 C5          0.0881   -1.9264   -4.7596 C.2       1 <0>         0.0000
      6 C6          0.6380   -0.2963   -2.9291 C.2       1 <0>         0.0000
      7 C7          1.6387    1.3677    0.0559 C.2       1 <0>         0.0000
      8 C8         -1.1507   -0.6427    0.2371 C.3       1 <0>         0.0000
      9 C9          0.4410    0.2156    2.0024 C.3       1 <0>         0.0000
     10 C10        -1.0385    0.1581    1.5493 C.3       1 <0>         0.0000
     11 C11        -2.2235   -1.1201   -5.5544 C.3       1 <0>         0.0000
     12 C12        -1.8303   -0.5995    2.6302 C.3       1 <0>         0.0000
     13 C13        -1.6193    1.5704    1.3796 C.3       1 <0>         0.0000
     14 C14         0.7412   -0.6211   -4.3943 C.3       1 <0>         0.0000
     15 N1         -1.5090   -3.4921   -5.4225 N.2       1 <0>         0.0000
     16 N2          1.4508    0.4738   -2.2481 N.2       1 <0>         0.0000
     17 N3         -0.3867   -0.7546   -2.1318 N.pl3     1 <0>         0.0000
     18 N4          1.2517    1.2475    1.3733 N.am      1 <0>         0.0000
     19 O1          2.5041    2.1819   -0.2624 O.2       1 <0>         0.0000
     20 S1          0.9132   -3.4483   -4.5338 S.3       1 <0>         0.0000
     21 H1         -0.5430   -5.3508   -5.1771 H         1 <0>         0.0000
     22 H2         -2.1815   -0.5648   -0.1332 H         1 <0>         0.0000
     23 H3         -0.9907   -1.7065    0.4639 H         1 <0>         0.0000
     24 H4          0.4635    0.4284    3.0750 H         1 <0>         0.0000
     25 H5          0.8938   -0.7774    1.8679 H         1 <0>         0.0000
     26 H6         -2.4755   -1.1541   -6.6194 H         1 <0>         0.0000
     27 H7         -3.1456   -1.3206   -4.9991 H         1 <0>         0.0000
     28 H8         -1.8872   -0.1103   -5.3113 H         1 <0>         0.0000
     29 H9         -1.8764   -0.0203    3.5587 H         1 <0>         0.0000
     30 H10        -1.3694   -1.5678    2.8589 H         1 <0>         0.0000
     31 H11        -2.8589   -0.7885    2.3039 H         1 <0>         0.0000
     32 H12        -1.4756    2.1617    2.2904 H         1 <0>         0.0000
     33 H13        -2.6955    1.5157    1.1808 H         1 <0>         0.0000
     34 H14        -1.1468    2.1106    0.5565 H         1 <0>         0.0000
     35 H15         1.8017   -0.6145   -4.6581 H         1 <0>         0.0000
     36 H16         0.2795    0.1828   -4.9778 H         1 <0>         0.0000
     37 H17        -1.1170   -1.3949   -2.4215 H         1 <0>         0.0000
     38 H18         1.7859    1.8589    1.9784 H         1 <0>         0.0000
@<TRIPOS>BOND
     1    1   15 2
     2    1   20 1
     3    1   21 1
     4    2    3 2
     5    2    7 1
     6    2   16 1
     7    3    8 1
     8    3   17 1
     9    4    5 2
    10    4   11 1
    11    4   15 1
    12    5   14 1
    13    5   20 1
    14    6   14 1
    15    6   16 2
    16    6   17 1
    17    7   18 am
    18    7   19 2
    19    8   10 1
    20    8   22 1
    21    8   23 1
    22    9   10 1
    23    9   18 1
    24    9   24 1
    25    9   25 1
    26   10   12 1
    27   10   13 1
    28   11   26 1
    29   11   27 1
    30   11   28 1
    31   12   29 1
    32   12   30 1
    33   12   31 1
    34   13   32 1
    35   13   33 1
    36   13   34 1
    37   14   35 1
    38   14   36 1
    39   17   37 1
    40   18   38 1
