@<TRIPOS>MOLECULE
*****
   32    33     0     0     0
SMALL
NO_CHARGES

@<TRIPOS>ATOM
      1 C1          7.1793   -3.9080   -1.9796 C.ar      1 <0>         0.0000
      2 C2          6.1205   -3.3449   -1.2717 C.ar      1 <0>         0.0000
      3 C3          2.8029   -1.6133    1.9265 C.ar      1 <0>         0.0000
      4 C4          1.7468   -0.9615   -0.1496 C.ar      1 <0>         0.0000
      5 C5          1.7560   -1.0576    2.6495 C.ar      1 <0>         0.0000
      6 C6          0.6974   -0.4040    0.5594 C.ar      1 <0>         0.0000
      7 C7          7.2099   -3.8794   -3.3820 C.ar      1 <0>         0.0000
      8 C8          5.0773   -2.6994   -3.3750 C.ar      1 <0>         0.0000
      9 C9          2.8232   -1.5787    0.5220 C.ar      1 <0>         0.0000
     10 C10         5.0605   -2.7356   -1.9715 C.ar      1 <0>         0.0000
     11 C11         0.6695   -0.4344    1.9833 C.ar      1 <0>         0.0000
     12 C12         6.1502   -3.2714   -4.0466 C.ar      1 <0>         0.0000
     13 C13        -1.4829    0.7501    1.9779 C.3       1 <0>         0.0000
     14 C14        -0.3861    0.0719    4.1390 C.3       1 <0>         0.0000
     15 N1          3.9313   -2.1716   -0.0997 N.2       1 <0>         0.0000
     16 N2          3.9302   -2.1296   -1.3673 N.2       1 <0>         0.0000
     17 N3         -0.3764    0.1225    2.6850 N.pl3     1 <0>         0.0000
     18 F1          6.1635   -3.2346   -5.4063 F         1 <0>         0.0000
     19 H1          7.9983   -4.3787   -1.4422 H         1 <0>         0.0000
     20 H2          6.0925   -3.3646   -0.1882 H         1 <0>         0.0000
     21 H3          3.6329   -2.0895    2.4415 H         1 <0>         0.0000
     22 H4          1.7546   -0.9309   -1.2342 H         1 <0>         0.0000
     23 H5          1.7825   -1.1078    3.7312 H         1 <0>         0.0000
     24 H6         -0.1123    0.0613    0.0098 H         1 <0>         0.0000
     25 H7          8.0278   -4.3137   -3.9484 H         1 <0>         0.0000
     26 H8          4.2629   -2.2310   -3.9182 H         1 <0>         0.0000
     27 H9         -2.2041    1.1290    2.7024 H         1 <0>         0.0000
     28 H10        -2.0043    0.0387    1.3240 H         1 <0>         0.0000
     29 H11        -1.1456    1.5963    1.3654 H         1 <0>         0.0000
     30 H12        -1.2870    0.5598    4.5113 H         1 <0>         0.0000
     31 H13         0.4807    0.5915    4.5682 H         1 <0>         0.0000
     32 H14        -0.3842   -0.9618    4.5094 H         1 <0>         0.0000
@<TRIPOS>BOND
     1    1    2 ar
     2    1    7 ar
     3    1   19 1
     4    2   10 ar
     5    2   20 1
     6    3    5 ar
     7    3    9 ar
     8    3   21 1
     9    4    6 ar
    10    4    9 ar
    11    4   22 1
    12    5   11 ar
    13    5   23 1
    14    6   11 ar
    15    6   24 1
    16    7   12 ar
    17    7   25 1
    18    8   10 ar
    19    8   12 ar
    20    8   26 1
    21    9   15 1
    22   10   16 1
    23   11   17 1
    24   12   18 1
    25   13   17 1
    26   13   27 1
    27   13   28 1
    28   13   29 1
    29   14   17 1
    30   14   30 1
    31   14   31 1
    32   14   32 1
    33   15   16 2
