@<TRIPOS>MOLECULE
*****
   47    50     0     0     0
SMALL
NO_CHARGES

@<TRIPOS>ATOM
      1 C1          8.3230   -3.3526    0.7106 C.1       1 <0>         0.0000
      2 C2          7.7256   -6.6034   -0.9763 C.ar      1 <0>         0.0000
      3 C3          6.4377   -6.4187   -1.4961 C.ar      1 <0>         0.0000
      4 C4          8.3173   -5.5722   -0.2540 C.ar      1 <0>         0.0000
      5 C5          5.7563   -5.2221   -1.2949 C.ar      1 <0>         0.0000
      6 C6          5.7888   -1.7224    0.2431 C.2       1 <0>         0.0000
      7 C7          4.6154   -0.9309    0.0385 C.2       1 <0>         0.0000
      8 C8          7.6365   -4.3587   -0.0455 C.ar      1 <0>         0.0000
      9 C9          6.3305   -4.1583   -0.5669 C.ar      1 <0>         0.0000
     10 C10         5.5749   -2.9290   -0.3862 C.2       1 <0>         0.0000
     11 C11         3.7522   -1.6923   -0.7005 C.2       1 <0>         0.0000
     12 C12         0.0730    1.2542    1.0919 C.3       1 <0>         0.0000
     13 C13         0.3030    1.5595   -0.4125 C.3       1 <0>         0.0000
     14 C14        -1.3113   -0.8771    0.8230 C.3       1 <0>         0.0000
     15 C15         1.2587   -0.9562    0.8402 C.3       1 <0>         0.0000
     16 C16        -0.6649   -0.5324   -1.5134 C.3       1 <0>         0.0000
     17 C17        -0.0077   -0.2576    1.3616 C.3       1 <0>         0.0000
     18 C18         0.6193    0.2781   -1.1988 C.3       1 <0>         0.0000
     19 C19        -2.9581   -0.9983   -0.9254 C.3       1 <0>         0.0000
     20 C20         2.3866   -1.4411   -1.2650 C.3       1 <0>         0.0000
     21 N1          8.9097   -2.5574    1.3297 N.1       1 <0>         0.0000
     22 N2         -1.7050   -0.3916   -0.4975 N.3       1 <0>         0.0000
     23 N3          1.6706   -0.4529   -0.4793 N.3       1 <0>         0.0000
     24 O1          4.3165   -2.9089   -0.9643 O.3       1 <0>         0.0000
     25 H1          8.2580   -7.5368   -1.1327 H         1 <0>         0.0000
     26 H2          5.9618   -7.2149   -2.0625 H         1 <0>         0.0000
     27 H3          9.3143   -5.6882    0.1601 H         1 <0>         0.0000
     28 H4          4.7604   -5.0934   -1.7027 H         1 <0>         0.0000
     29 H5          6.6731   -1.4309    0.7890 H         1 <0>         0.0000
     30 H6          4.4227    0.0727    0.3909 H         1 <0>         0.0000
     31 H7          0.8986    1.6641    1.6840 H         1 <0>         0.0000
     32 H8         -0.8432    1.7386    1.4432 H         1 <0>         0.0000
     33 H9         -0.5794    2.0368   -0.8460 H         1 <0>         0.0000
     34 H10         1.1475    2.2453   -0.5286 H         1 <0>         0.0000
     35 H11        -1.2146   -1.9817    0.8398 H         1 <0>         0.0000
     36 H12        -2.1273   -0.6239    1.5106 H         1 <0>         0.0000
     37 H13         2.0785   -0.7999    1.5514 H         1 <0>         0.0000
     38 H14         1.0807   -2.0447    0.8061 H         1 <0>         0.0000
     39 H15        -1.0851   -0.1559   -2.4531 H         1 <0>         0.0000
     40 H16        -0.3986   -1.5935   -1.6927 H         1 <0>         0.0000
     41 H17        -0.0246   -0.4238    2.4453 H         1 <0>         0.0000
     42 H18         1.0571    0.5621   -2.1618 H         1 <0>         0.0000
     43 H19        -3.2824   -0.5548   -1.8724 H         1 <0>         0.0000
     44 H20        -3.7355   -0.8074   -0.1782 H         1 <0>         0.0000
     45 H21        -2.8843   -2.0941   -1.0675 H         1 <0>         0.0000
     46 H22         2.4887   -1.0650   -2.2911 H         1 <0>         0.0000
     47 H23         1.8623   -2.4125   -1.3383 H         1 <0>         0.0000
@<TRIPOS>BOND
     1    1    8 1
     2    1   21 3
     3    2    3 ar
     4    2    4 ar
     5    2   25 1
     6    3    5 ar
     7    3   26 1
     8    4    8 ar
     9    4   27 1
    10    5    9 ar
    11    5   28 1
    12    6    7 1
    13    6   10 2
    14    6   29 1
    15    7   11 2
    16    7   30 1
    17    8    9 ar
    18    9   10 1
    19   10   24 1
    20   11   20 1
    21   11   24 1
    22   12   13 1
    23   12   17 1
    24   12   31 1
    25   12   32 1
    26   13   18 1
    27   13   33 1
    28   13   34 1
    29   14   17 1
    30   14   22 1
    31   14   35 1
    32   14   36 1
    33   15   17 1
    34   15   23 1
    35   15   37 1
    36   15   38 1
    37   16   18 1
    38   16   22 1
    39   16   39 1
    40   16   40 1
    41   17   41 1
    42   18   23 1
    43   18   42 1
    44   19   22 1
    45   19   43 1
    46   19   44 1
    47   19   45 1
    48   20   23 1
    49   20   46 1
    50   20   47 1
