@<TRIPOS>MOLECULE
*****
   27    28     0     0     0
SMALL
NO_CHARGES

@<TRIPOS>ATOM
      1 C1          4.0291   -0.8029    1.3571 C.ar      1 <0>         0.0000
      2 C2          2.0787   -1.4604    0.1000 C.ar      1 <0>         0.0000
      3 C3          3.3284    0.2766    1.9033 C.ar      1 <0>         0.0000
      4 C4          1.3658   -0.3853    0.6322 C.ar      1 <0>         0.0000
      5 C5          3.4163   -3.0137   -3.6430 C.2       1 <0>         0.0000
      6 C6          3.4154   -1.6795    0.4572 C.ar      1 <0>         0.0000
      7 C7          1.9985    0.4752    1.5327 C.ar      1 <0>         0.0000
      8 C8          2.7091   -4.0998   -3.0575 C.2       1 <0>         0.0000
      9 C9          4.1181   -2.4375   -2.5915 C.2       1 <0>         0.0000
     10 C10         1.7965   -5.0778   -3.7351 C.3       1 <0>         0.0000
     11 C11         4.1748   -2.8684   -0.1037 C.3       1 <0>         0.0000
     12 N1          2.9537   -4.1956   -1.7505 N.2       1 <0>         0.0000
     13 N2          3.8342   -3.1716   -1.4790 N.pl3     1 <0>         0.0000
     14 N3          4.9046   -1.2821   -2.5304 N.pl3     1 <0>         0.0000
     15 Cl1         1.1077    1.8347    2.2031 Cl        1 <0>         0.0000
     16 H1          5.0695   -0.9532    1.6391 H         1 <0>         0.0000
     17 H2          1.5956   -2.1322   -0.6039 H         1 <0>         0.0000
     18 H3          3.8088    0.9571    2.5991 H         1 <0>         0.0000
     19 H4          0.3310   -0.2141    0.3524 H         1 <0>         0.0000
     20 H5          3.4207   -2.7012   -4.6792 H         1 <0>         0.0000
     21 H6          2.3290   -5.6538   -4.5001 H         1 <0>         0.0000
     22 H7          1.3873   -5.7755   -3.0007 H         1 <0>         0.0000
     23 H8          0.9645   -4.5648   -4.2301 H         1 <0>         0.0000
     24 H9          5.2548   -2.7017   -0.0131 H         1 <0>         0.0000
     25 H10         3.9428   -3.7750    0.4610 H         1 <0>         0.0000
     26 H11         5.1983   -0.9788   -3.4526 H         1 <0>         0.0000
     27 H12         5.7137   -1.3665   -1.9226 H         1 <0>         0.0000
@<TRIPOS>BOND
     1    1    3 ar
     2    1    6 ar
     3    1   16 1
     4    2    4 ar
     5    2    6 ar
     6    2   17 1
     7    3    7 ar
     8    3   18 1
     9    4    7 ar
    10    4   19 1
    11    5    8 1
    12    5    9 2
    13    5   20 1
    14    6   11 1
    15    7   15 1
    16    8   10 1
    17    8   12 2
    18    9   13 1
    19    9   14 1
    20   10   21 1
    21   10   22 1
    22   10   23 1
    23   11   13 1
    24   11   24 1
    25   11   25 1
    26   12   13 1
    27   14   26 1
    28   14   27 1
