@<TRIPOS>MOLECULE
*****
   25    26     0     0     0
SMALL
NO_CHARGES

@<TRIPOS>ATOM
      1 C1          6.7695    1.3836   -0.6940 C.ar      1 <0>         0.0000
      2 C2          6.4850    2.7475   -0.8012 C.ar      1 <0>         0.0000
      3 C3          5.8096    0.5435   -0.1303 C.ar      1 <0>         0.0000
      4 C4          0.4992   -0.8989    1.2685 C.ar      1 <0>         0.0000
      5 C5          1.1849   -0.1227    3.4282 C.ar      1 <0>         0.0000
      6 C6          5.2491    3.2134   -0.3370 C.ar      1 <0>         0.0000
      7 C7         -0.3722   -1.7731    1.9117 C.ar      1 <0>         0.0000
      8 C8          1.3016   -0.0448    2.0390 C.ar      1 <0>         0.0000
      9 C9          4.6033    1.1077    0.3053 C.ar      1 <0>         0.0000
     10 C10         0.2738   -1.0425    3.9585 C.ar      1 <0>         0.0000
     11 C11         3.5501    0.2189    0.9149 C.2       1 <0>         0.0000
     12 C12         2.2728    0.9067    1.3952 C.3       1 <0>         0.0000
     13 N1          4.3222    2.4184    0.2074 N.ar      1 <0>         0.0000
     14 N2         -0.4910   -1.8483    3.2497 N.ar      1 <0>         0.0000
     15 O1          3.7279   -0.9858    1.0033 O.2       1 <0>         0.0000
     16 Br1         0.1067   -1.1534    5.8801 Br        1 <0>         0.0000
     17 H1          7.7186    0.9852   -1.0427 H         1 <0>         0.0000
     18 H2          7.2006    3.4410   -1.2334 H         1 <0>         0.0000
     19 H3          5.9650   -0.5244   -0.0187 H         1 <0>         0.0000
     20 H4          0.5567   -0.8887    0.1836 H         1 <0>         0.0000
     21 H5          1.7794    0.5064    4.0825 H         1 <0>         0.0000
     22 H6          4.9970    4.2703   -0.4064 H         1 <0>         0.0000
     23 H7         -1.0077   -2.4470    1.3407 H         1 <0>         0.0000
     24 H8          1.8263    1.4084    0.5293 H         1 <0>         0.0000
     25 H9          2.5580    1.7166    2.0732 H         1 <0>         0.0000
@<TRIPOS>BOND
     1    1    2 ar
     2    1    3 ar
     3    1   17 1
     4    2    6 ar
     5    2   18 1
     6    3    9 ar
     7    3   19 1
     8    4    7 ar
     9    4    8 ar
    10    4   20 1
    11    5    8 ar
    12    5   10 ar
    13    5   21 1
    14    6   13 ar
    15    6   22 1
    16    7   14 ar
    17    7   23 1
    18    8   12 1
    19    9   11 1
    20    9   13 ar
    21   10   14 ar
    22   10   16 1
    23   11   12 1
    24   11   15 2
    25   12   24 1
    26   12   25 1
