@<TRIPOS>MOLECULE
*****
   20    21     0     0     0
SMALL
NO_CHARGES

@<TRIPOS>ATOM
      1 C1          0.8661    0.9902   -3.1110 C.3       1 <0>         0.0000
      2 C2         -0.7087   -0.3923   -3.4226 C.3       1 <0>         0.0000
      3 C3         -1.0772   -0.6960   -0.1703 C.3       1 <0>         0.0000
      4 C4          0.5004    0.6798    0.1348 C.3       1 <0>         0.0000
      5 C5         -0.3115    0.5093   -2.2279 C.3       1 <0>         0.0000
      6 C6         -0.2989   -0.2385    1.0751 C.3       1 <0>         0.0000
      7 N1          0.1585    0.4419   -4.3038 N.3       1 <0>         0.0000
      8 N2          0.0377   -0.1644   -0.9989 N.3       1 <0>         0.0000
      9 F1         -1.0463    0.4000    2.0610 F         1 <0>         0.0000
     10 H1          1.0591    2.0671   -3.1596 H         1 <0>         0.0000
     11 H2          1.7904    0.4596   -2.8449 H         1 <0>         0.0000
     12 H3         -0.3491   -1.4187   -3.2681 H         1 <0>         0.0000
     13 H4         -1.7630   -0.4105   -3.7181 H         1 <0>         0.0000
     14 H5         -1.2852   -1.7624   -0.2998 H         1 <0>         0.0000
     15 H6         -2.0088   -0.1171   -0.2685 H         1 <0>         0.0000
     16 H7          0.0648    1.6911    0.1327 H         1 <0>         0.0000
     17 H8          1.5862    0.7415    0.2555 H         1 <0>         0.0000
     18 H9         -1.0498    1.3135   -2.0650 H         1 <0>         0.0000
     19 H10         0.2901   -1.0210    1.5581 H         1 <0>         0.0000
     20 H11         0.7523   -0.0923   -4.9343 H         1 <0>         0.0000
@<TRIPOS>BOND
     1    1    5 1
     2    1    7 1
     3    1   10 1
     4    1   11 1
     5    2    5 1
     6    2    7 1
     7    2   12 1
     8    2   13 1
     9    3    6 1
    10    3    8 1
    11    3   14 1
    12    3   15 1
    13    4    6 1
    14    4    8 1
    15    4   16 1
    16    4   17 1
    17    5    8 1
    18    5   18 1
    19    6    9 1
    20    6   19 1
    21    7   20 1
