@<TRIPOS>MOLECULE
*****
   47    50     0     0     0
SMALL
NO_CHARGES

@<TRIPOS>ATOM
      1 C1          6.3056   -2.9713   -5.0275 C.1       1 <0>         0.0000
      2 C2          8.4174   -0.5286   -3.1980 C.ar      1 <0>         0.0000
      3 C3          7.6243   -0.2546   -2.0761 C.ar      1 <0>         0.0000
      4 C4          7.9535   -1.4281   -4.1527 C.ar      1 <0>         0.0000
      5 C5          6.3877   -0.8723   -1.9139 C.ar      1 <0>         0.0000
      6 C6          3.7797   -3.2702   -3.3444 C.2       1 <0>         0.0000
      7 C7          2.6031   -3.4586   -2.5524 C.2       1 <0>         0.0000
      8 C8          6.7050   -2.0579   -3.9971 C.ar      1 <0>         0.0000
      9 C9          5.8924   -1.7893   -2.8645 C.ar      1 <0>         0.0000
     10 C10         4.5920   -2.4058   -2.6446 C.2       1 <0>         0.0000
     11 C11         2.7622   -2.7081   -1.4186 C.2       1 <0>         0.0000
     12 C12         0.8062    1.5350    0.5636 C.3       1 <0>         0.0000
     13 C13         1.1196    1.1197   -0.8986 C.3       1 <0>         0.0000
     14 C14        -1.3431    0.1799    0.8511 C.3       1 <0>         0.0000
     15 C15         0.9524   -0.8710    1.3127 C.3       1 <0>         0.0000
     16 C16        -0.5874   -0.7411   -1.2921 C.3       1 <0>         0.0000
     17 C17         0.0993    0.4099    1.3389 C.3       1 <0>         0.0000
     18 C18         0.9102   -0.3890   -1.0990 C.3       1 <0>         0.0000
     19 C19        -2.8806   -0.0514   -0.9819 C.3       1 <0>         0.0000
     20 C20         1.9051   -2.4855   -0.2174 C.3       1 <0>         0.0000
     21 N1          6.0092   -3.7064   -5.8829 N.1       1 <0>         0.0000
     22 N2         -1.4933    0.1756   -0.6022 N.3       1 <0>         0.0000
     23 N3          1.5867   -1.0815    0.0071 N.3       1 <0>         0.0000
     24 O1          3.9667   -2.0652   -1.4616 O.3       1 <0>         0.0000
     25 H1          9.3823   -0.0468   -3.3252 H         1 <0>         0.0000
     26 H2          7.9732    0.4471   -1.3231 H         1 <0>         0.0000
     27 H3          8.5481   -1.6580   -5.0315 H         1 <0>         0.0000
     28 H4          5.7814   -0.6500   -1.0434 H         1 <0>         0.0000
     29 H5          3.9866   -3.7133   -4.3064 H         1 <0>         0.0000
     30 H6          1.7438   -4.0697   -2.7959 H         1 <0>         0.0000
     31 H7          1.7375    1.7773    1.0873 H         1 <0>         0.0000
     32 H8          0.1864    2.4371    0.5807 H         1 <0>         0.0000
     33 H9          0.4842    1.6681   -1.5982 H         1 <0>         0.0000
     34 H10         2.1621    1.3514   -1.1360 H         1 <0>         0.0000
     35 H11        -1.7243   -0.7585    1.3029 H         1 <0>         0.0000
     36 H12        -1.9752    0.9903    1.2345 H         1 <0>         0.0000
     37 H13         1.7418   -0.8054    2.0743 H         1 <0>         0.0000
     38 H14         0.3130   -1.7262    1.5951 H         1 <0>         0.0000
     39 H15        -0.8194   -0.6726   -2.3608 H         1 <0>         0.0000
     40 H16        -0.7644   -1.7966   -1.0027 H         1 <0>         0.0000
     41 H17         0.0122    0.7044    2.3916 H         1 <0>         0.0000
     42 H18         1.4277   -0.6947   -2.0124 H         1 <0>         0.0000
     43 H19        -2.9900    0.0422   -2.0672 H         1 <0>         0.0000
     44 H20        -3.5210    0.7018   -0.5108 H         1 <0>         0.0000
     45 H21        -3.2553   -1.0503   -0.6842 H         1 <0>         0.0000
     46 H22         1.0121   -3.1282   -0.3286 H         1 <0>         0.0000
     47 H23         2.4354   -2.8453    0.6742 H         1 <0>         0.0000
@<TRIPOS>BOND
     1    1    8 1
     2    1   21 3
     3    2    3 ar
     4    2    4 ar
     5    2   25 1
     6    3    5 ar
     7    3   26 1
     8    4    8 ar
     9    4   27 1
    10    5    9 ar
    11    5   28 1
    12    6    7 1
    13    6   10 2
    14    6   29 1
    15    7   11 2
    16    7   30 1
    17    8    9 ar
    18    9   10 1
    19   10   24 1
    20   11   20 1
    21   11   24 1
    22   12   13 1
    23   12   17 1
    24   12   31 1
    25   12   32 1
    26   13   18 1
    27   13   33 1
    28   13   34 1
    29   14   17 1
    30   14   22 1
    31   14   35 1
    32   14   36 1
    33   15   17 1
    34   15   23 1
    35   15   37 1
    36   15   38 1
    37   16   18 1
    38   16   22 1
    39   16   39 1
    40   16   40 1
    41   17   41 1
    42   18   23 1
    43   18   42 1
    44   19   22 1
    45   19   43 1
    46   19   44 1
    47   19   45 1
    48   20   23 1
    49   20   46 1
    50   20   47 1
