@<TRIPOS>MOLECULE
*****
   35    36     0     0     0
SMALL
NO_CHARGES

@<TRIPOS>ATOM
      1 C1          1.7383    1.2204    4.9368 C.ar      1 <0>         0.0000
      2 C2          2.9657    1.3461    2.8392 C.ar      1 <0>         0.0000
      3 C3          2.7276    1.9748    5.5601 C.ar      1 <0>         0.0000
      4 C4          3.9471    2.1234    3.4498 C.ar      1 <0>         0.0000
      5 C5         -1.6154    3.4745    4.0211 C.ar      1 <0>         0.0000
      6 C6         -2.6150    1.7347    5.3810 C.ar      1 <0>         0.0000
      7 C7         -0.8480    2.5309    3.3333 C.ar      1 <0>         0.0000
      8 C8         -1.8894    0.7632    4.6916 C.ar      1 <0>         0.0000
      9 C9          1.8449    0.9201    3.5673 C.ar      1 <0>         0.0000
     10 C10        -0.9674    1.1729    3.7041 C.ar      1 <0>         0.0000
     11 C11        -2.4745    3.0892    5.0521 C.ar      1 <0>         0.0000
     12 C12         3.8162    2.4268    4.8070 C.ar      1 <0>         0.0000
     13 C13         0.0285    3.0017    2.1962 C.3       1 <0>         0.0000
     14 C14        -2.0350   -0.6994    5.0339 C.3       1 <0>         0.0000
     15 N1          0.9410    0.0476    2.8800 N.2       1 <0>         0.0000
     16 N2         -0.3049    0.1112    3.0064 N.2       1 <0>         0.0000
     17 O1          5.8974    4.0550    4.5847 O.2       1 <0>         0.0000
     18 O2          4.4751    4.1327    6.7120 O.2       1 <0>         0.0000
     19 O3         -3.1769    4.0785    5.6908 O.3       1 <0>         0.0000
     20 O4          6.0258    2.2455    6.2995 O.3       1 <0>         0.0000
     21 S1          5.0754    3.4066    5.6064 S.o2      1 <0>         0.0000
     22 H1          0.8882    0.8696    5.5102 H         1 <0>         0.0000
     23 H2          3.0445    1.0731    1.7911 H         1 <0>         0.0000
     24 H3          2.6519    2.2274    6.6129 H         1 <0>         0.0000
     25 H4          4.7975    2.4948    2.8870 H         1 <0>         0.0000
     26 H5         -1.5610    4.5263    3.7543 H         1 <0>         0.0000
     27 H6         -3.3029    1.4319    6.1692 H         1 <0>         0.0000
     28 H7          1.0023    3.3435    2.5623 H         1 <0>         0.0000
     29 H8          0.2098    2.2158    1.4597 H         1 <0>         0.0000
     30 H9         -0.4438    3.8440    1.6835 H         1 <0>         0.0000
     31 H10        -2.1392   -1.3003    4.1257 H         1 <0>         0.0000
     32 H11        -1.1509   -1.0786    5.5603 H         1 <0>         0.0000
     33 H12        -2.9042   -0.8672    5.6748 H         1 <0>         0.0000
     34 H13        -3.7472    3.6806    6.3678 H         1 <0>         0.0000
     35 H14         6.8278    2.1520    5.7500 H         1 <0>         0.0000
@<TRIPOS>BOND
     1    1    3 ar
     2    1    9 ar
     3    1   22 1
     4    2    4 ar
     5    2    9 ar
     6    2   23 1
     7    3   12 ar
     8    3   24 1
     9    4   12 ar
    10    4   25 1
    11    5    7 ar
    12    5   11 ar
    13    5   26 1
    14    6    8 ar
    15    6   11 ar
    16    6   27 1
    17    7   10 ar
    18    7   13 1
    19    8   10 ar
    20    8   14 1
    21    9   15 1
    22   10   16 1
    23   11   19 1
    24   12   21 1
    25   13   28 1
    26   13   29 1
    27   13   30 1
    28   14   31 1
    29   14   32 1
    30   14   33 1
    31   15   16 2
    32   17   21 2
    33   18   21 2
    34   19   34 1
    35   20   21 1
    36   20   35 1
