@<TRIPOS>MOLECULE
*****
   42    45     0     0     0
SMALL
NO_CHARGES

@<TRIPOS>ATOM
      1 C1         -1.2776   -2.1475   -4.5410 C.ar      1 <0>         0.0000
      2 C2         -0.4336   -2.8044   -3.6429 C.ar      1 <0>         0.0000
      3 C3         -2.6582   -2.1044   -4.2927 C.ar      1 <0>         0.0000
      4 C4         -0.9345   -3.4197   -2.4862 C.ar      1 <0>         0.0000
      5 C5         -1.2030   -5.7386    2.5781 C.ar      1 <0>         0.0000
      6 C6         -0.8486   -3.3659    2.7806 C.ar      1 <0>         0.0000
      7 C7         -3.1649   -2.7065   -3.1487 C.ar      1 <0>         0.0000
      8 C8         -1.1052   -4.4814    1.9787 C.ar      1 <0>         0.0000
      9 C9         -2.3089   -3.3504   -2.2344 C.ar      1 <0>         0.0000
     10 C10        -1.0595   -5.8943    3.9566 C.ar      1 <0>         0.0000
     11 C11        -0.8408   -4.7673    4.7823 C.ar      1 <0>         0.0000
     12 C12        -0.7249   -3.5149    4.1617 C.ar      1 <0>         0.0000
     13 C13        -2.7350   -4.4266    0.0454 C.2       1 <0>         0.0000
     14 C14        -4.5924   -2.7895   -2.6572 C.3       1 <0>         0.0000
     15 C15        -0.9865   -7.1496    6.8951 C.3       1 <0>         0.0000
     16 C16        -4.5151   -3.8614   -1.5526 C.3       1 <0>         0.0000
     17 C17        -0.3341   -7.5187    5.5629 C.3       1 <0>         0.0000
     18 C18        -1.5990   -5.7509    6.8174 C.3       1 <0>         0.0000
     19 C19        -1.2727   -4.3179    0.4877 C.3       1 <0>         0.0000
     20 N1         -3.0805   -3.8945   -1.1781 N.am      1 <0>         0.0000
     21 O1         -3.5926   -4.9508    0.7529 O.2       1 <0>         0.0000
     22 O2         -1.1784   -7.1760    4.4483 O.3       1 <0>         0.0000
     23 O3         -0.7140   -4.8326    6.1463 O.3       1 <0>         0.0000
     24 Cl1        -0.4361   -2.0987    5.1536 Cl        1 <0>         0.0000
     25 H1         -0.8685   -1.6834   -5.4339 H         1 <0>         0.0000
     26 H2          0.6334   -2.8559   -3.8432 H         1 <0>         0.0000
     27 H3         -3.3278   -1.6082   -4.9914 H         1 <0>         0.0000
     28 H4         -0.2524   -3.9477   -1.8338 H         1 <0>         0.0000
     29 H5         -1.3978   -6.6276    1.9863 H         1 <0>         0.0000
     30 H6         -0.7584   -2.3754    2.3452 H         1 <0>         0.0000
     31 H7         -4.9114   -1.8241   -2.2458 H         1 <0>         0.0000
     32 H8         -5.2990   -3.0626   -3.4451 H         1 <0>         0.0000
     33 H9         -1.7753   -7.8658    7.1517 H         1 <0>         0.0000
     34 H10        -0.2254   -7.1966    7.6823 H         1 <0>         0.0000
     35 H11        -5.1142   -3.6405   -0.6703 H         1 <0>         0.0000
     36 H12        -4.8117   -4.8490   -1.9232 H         1 <0>         0.0000
     37 H13         0.6328   -7.0177    5.4518 H         1 <0>         0.0000
     38 H14        -0.1730   -8.5968    5.4870 H         1 <0>         0.0000
     39 H15        -2.5593   -5.7728    6.2932 H         1 <0>         0.0000
     40 H16        -1.7588   -5.3286    7.8122 H         1 <0>         0.0000
     41 H17        -0.8614   -3.3579    0.1675 H         1 <0>         0.0000
     42 H18        -0.7087   -5.0964   -0.0403 H         1 <0>         0.0000
@<TRIPOS>BOND
     1    1    2 ar
     2    1    3 ar
     3    1   25 1
     4    2    4 ar
     5    2   26 1
     6    3    7 ar
     7    3   27 1
     8    4    9 ar
     9    4   28 1
    10    5    8 ar
    11    5   10 ar
    12    5   29 1
    13    6    8 ar
    14    6   12 ar
    15    6   30 1
    16    7    9 ar
    17    7   14 1
    18    8   19 1
    19    9   20 1
    20   10   11 ar
    21   10   22 1
    22   11   12 ar
    23   11   23 1
    24   12   24 1
    25   13   19 1
    26   13   20 am
    27   13   21 2
    28   14   16 1
    29   14   31 1
    30   14   32 1
    31   15   17 1
    32   15   18 1
    33   15   33 1
    34   15   34 1
    35   16   20 1
    36   16   35 1
    37   16   36 1
    38   17   22 1
    39   17   37 1
    40   17   38 1
    41   18   23 1
    42   18   39 1
    43   18   40 1
    44   19   41 1
    45   19   42 1
