@<TRIPOS>MOLECULE
*****
   41    43     0     0     0
SMALL
NO_CHARGES

@<TRIPOS>ATOM
      1 C1          3.5179   -1.3916   -7.2713 C.ar      1 <0>         0.0000
      2 C2          2.7082   -2.2803   -6.5538 C.ar      1 <0>         0.0000
      3 C3          3.5282   -0.0373   -6.9277 C.ar      1 <0>         0.0000
      4 C4          1.9154   -1.8161   -5.5029 C.ar      1 <0>         0.0000
      5 C5          2.7301    0.4232   -5.8745 C.ar      1 <0>         0.0000
      6 C6          1.9157   -0.4583   -5.1535 C.ar      1 <0>         0.0000
      7 C7          1.5382   -0.4120   -2.6378 C.2       1 <0>         0.0000
      8 C8         -1.0275    1.1689   -0.4343 C.3       1 <0>         0.0000
      9 C9          0.7627   -1.3814    0.3209 C.3       1 <0>         0.0000
     10 C10        -0.0584    1.2299   -1.6198 C.3       1 <0>         0.0000
     11 C11         1.5092   -0.1616   -0.2243 C.3       1 <0>         0.0000
     12 C12        -2.8787   -0.1105    0.7465 C.3       1 <0>         0.0000
     13 C13        -1.6210   -0.2256   -0.1509 C.3       1 <0>         0.0000
     14 C14        -0.7190   -1.1785    0.6599 C.3       1 <0>         0.0000
     15 C15         1.0554    0.0515   -4.0223 C.3       1 <0>         0.0000
     16 N1         -2.4558    0.1850    2.1334 N.pl3     1 <0>         0.0000
     17 N2          1.0041    0.2286   -1.5442 N.am      1 <0>         0.0000
     18 O1          2.3599   -1.3190   -2.5093 O.2       1 <0>         0.0000
     19 O2          0.0408    0.4736    2.7253 O.2       1 <0>         0.0000
     20 O3         -1.0868   -1.7325    3.2863 O.2       1 <0>         0.0000
     21 S1         -0.9340   -0.5823    2.3964 S.o2      1 <0>         0.0000
     22 H1          4.1358   -1.7533   -8.0893 H         1 <0>         0.0000
     23 H2          2.6993   -3.3363   -6.8115 H         1 <0>         0.0000
     24 H3          4.1546    0.6609   -7.4772 H         1 <0>         0.0000
     25 H4          1.3039   -2.5145   -4.9378 H         1 <0>         0.0000
     26 H5          2.7445    1.4792   -5.6116 H         1 <0>         0.0000
     27 H6         -0.5508    1.5684    0.4640 H         1 <0>         0.0000
     28 H7         -1.8490    1.8553   -0.6727 H         1 <0>         0.0000
     29 H8          0.8319   -2.1705   -0.4329 H         1 <0>         0.0000
     30 H9          1.2819   -1.7596    1.2088 H         1 <0>         0.0000
     31 H10        -0.6301    1.0694   -2.5351 H         1 <0>         0.0000
     32 H11         0.3632    2.2442   -1.6754 H         1 <0>         0.0000
     33 H12         1.4451    0.6877    0.4575 H         1 <0>         0.0000
     34 H13         2.5615   -0.4239   -0.3372 H         1 <0>         0.0000
     35 H14        -3.5568    0.6787    0.4145 H         1 <0>         0.0000
     36 H15        -3.4352   -1.0530    0.7483 H         1 <0>         0.0000
     37 H16        -1.8898   -0.7079   -1.0981 H         1 <0>         0.0000
     38 H17        -1.2046   -2.1585    0.6963 H         1 <0>         0.0000
     39 H18         1.0127    1.1439   -4.0545 H         1 <0>         0.0000
     40 H19         0.0232   -0.3005   -4.1517 H         1 <0>         0.0000
     41 H20        -2.3075    1.1828    2.2814 H         1 <0>         0.0000
@<TRIPOS>BOND
     1    1    3 ar
     2    1    2 ar
     3    1   22 1
     4    2    4 ar
     5    2   23 1
     6    3    5 ar
     7    3   24 1
     8    4    6 ar
     9    4   25 1
    10    5    6 ar
    11    5   26 1
    12    6   15 1
    13    7   15 1
    14    7   17 am
    15    7   18 2
    16    8   10 1
    17    8   13 1
    18    8   27 1
    19    8   28 1
    20    9   11 1
    21    9   14 1
    22    9   29 1
    23    9   30 1
    24   10   17 1
    25   10   31 1
    26   10   32 1
    27   11   17 1
    28   11   33 1
    29   11   34 1
    30   12   13 1
    31   12   16 1
    32   12   35 1
    33   12   36 1
    34   13   14 1
    35   13   37 1
    36   14   21 1
    37   14   38 1
    38   15   39 1
    39   15   40 1
    40   16   21 1
    41   16   41 1
    42   19   21 2
    43   20   21 2
