@<TRIPOS>MOLECULE
*****
   43    45     0     0     0
SMALL
NO_CHARGES

@<TRIPOS>ATOM
      1 C1          2.8888    5.0584    6.6584 C.ar      1 <0>         0.0000
      2 C2          3.9130    4.0880    6.6626 C.ar      1 <0>         0.0000
      3 C3          1.7437    4.8730    5.8850 C.ar      1 <0>         0.0000
      4 C4          3.8160    2.9129    5.9154 C.ar      1 <0>         0.0000
      5 C5          1.6465    3.7055    5.1223 C.ar      1 <0>         0.0000
      6 C6          2.6573    2.7341    5.1517 C.ar      1 <0>         0.0000
      7 C7          0.5999    3.2333    4.2006 C.2       1 <0>         0.0000
      8 C8          1.0820    0.4717    1.8170 C.2       1 <0>         0.0000
      9 C9         -1.6256   -1.3826    0.0032 C.3       1 <0>         0.0000
     10 C10        -1.1210   -0.3342    0.9911 C.3       1 <0>         0.0000
     11 C11         0.9919   -0.7765   -0.2862 C.3       1 <0>         0.0000
     12 C12         0.1708   -0.3950   -1.5226 C.3       1 <0>         0.0000
     13 C13        -1.2131   -1.1209   -1.4622 C.3       1 <0>         0.0000
     14 C14         0.1237    1.1331   -1.6882 C.3       1 <0>         0.0000
     15 C15        -2.3155   -0.3823   -2.2266 C.3       1 <0>         0.0000
     16 C16         0.3161    1.0612    3.0083 C.3       1 <0>         0.0000
     17 N1          2.2935    1.6292    4.3649 N.pl3     1 <0>         0.0000
     18 N2          1.1061    2.0377    3.7033 N.am      1 <0>         0.0000
     19 N3          0.3460   -0.2396    0.9222 N.am      1 <0>         0.0000
     20 O1         -0.4955    3.7128    3.9010 O.2       1 <0>         0.0000
     21 O2          2.3072    0.6219    1.7219 O.2       1 <0>         0.0000
     22 O3         -1.0659   -2.4501   -2.0116 O.3       1 <0>         0.0000
     23 H1          3.0005    5.9550    7.2615 H         1 <0>         0.0000
     24 H2          4.7994    4.2557    7.2691 H         1 <0>         0.0000
     25 H3          0.9450    5.6090    5.8583 H         1 <0>         0.0000
     26 H4          4.6046    2.1657    5.9350 H         1 <0>         0.0000
     27 H5         -1.2276   -2.3606    0.2867 H         1 <0>         0.0000
     28 H6         -2.7146   -1.4488    0.0821 H         1 <0>         0.0000
     29 H7         -1.5803    0.6416    0.7822 H         1 <0>         0.0000
     30 H8         -1.4287   -0.6250    1.9994 H         1 <0>         0.0000
     31 H9          1.0825   -1.8659   -0.2111 H         1 <0>         0.0000
     32 H10         1.9970   -0.3579   -0.3271 H         1 <0>         0.0000
     33 H11         0.6964   -0.8050   -2.3941 H         1 <0>         0.0000
     34 H12        -0.4178    1.6289   -0.8780 H         1 <0>         0.0000
     35 H13        -0.3474    1.4252   -2.6300 H         1 <0>         0.0000
     36 H14         1.1419    1.5351   -1.6875 H         1 <0>         0.0000
     37 H15        -2.0208   -0.1874   -3.2648 H         1 <0>         0.0000
     38 H16        -2.5585    0.5800   -1.7665 H         1 <0>         0.0000
     39 H17        -3.2201   -0.9972   -2.2383 H         1 <0>         0.0000
     40 H18         0.0211    0.2434    3.6824 H         1 <0>         0.0000
     41 H19        -0.5915    1.5842    2.6985 H         1 <0>         0.0000
     42 H20         2.9681    1.3342    3.6547 H         1 <0>         0.0000
     43 H21        -0.9138   -2.3635   -2.9669 H         1 <0>         0.0000
@<TRIPOS>BOND
     1    1    2 ar
     2    1    3 ar
     3    1   23 1
     4    2    4 ar
     5    2   24 1
     6    3    5 ar
     7    3   25 1
     8    4    6 ar
     9    4   26 1
    10    5    6 ar
    11    5    7 1
    12    6   17 1
    13    7   18 am
    14    7   20 2
    15    8   16 1
    16    8   19 am
    17    8   21 2
    18    9   10 1
    19    9   13 1
    20    9   27 1
    21    9   28 1
    22   10   19 1
    23   10   29 1
    24   10   30 1
    25   11   12 1
    26   11   19 1
    27   11   31 1
    28   11   32 1
    29   12   13 1
    30   12   14 1
    31   12   33 1
    32   13   15 1
    33   13   22 1
    34   14   34 1
    35   14   35 1
    36   14   36 1
    37   15   37 1
    38   15   38 1
    39   15   39 1
    40   16   18 1
    41   16   40 1
    42   16   41 1
    43   17   18 1
    44   17   42 1
    45   22   43 1
