@<TRIPOS>MOLECULE
*****
   30    31     0     0     0
SMALL
NO_CHARGES

@<TRIPOS>ATOM
      1 C1          0.0123    1.6359    6.9381 C.ar      1 <0>         0.0000
      2 C2          1.9200   -1.0526    0.0054 C.ar      1 <0>         0.0000
      3 C3          0.4518    2.1329    5.7063 C.ar      1 <0>         0.0000
      4 C4          0.2309    0.2890    7.2471 C.ar      1 <0>         0.0000
      5 C5          0.9455   -0.3365    0.7202 C.ar      1 <0>         0.0000
      6 C6          2.8940   -1.7406    0.7142 C.ar      1 <0>         0.0000
      7 C7          1.0986    1.3013    4.7901 C.ar      1 <0>         0.0000
      8 C8          0.8596   -0.5540    6.3294 C.ar      1 <0>         0.0000
      9 C9          0.9620   -0.2929    2.1067 C.ar      1 <0>         0.0000
     10 C10         2.9380   -1.7202    2.1235 C.ar      1 <0>         0.0000
     11 C11         1.2965   -0.0584    5.0887 C.ar      1 <0>         0.0000
     12 C12         1.9632   -0.9654    2.8484 C.ar      1 <0>         0.0000
     13 C13         3.9752   -2.4937    2.8307 C.2       1 <0>         0.0000
     14 C14         5.9030   -3.8476    2.6416 C.3       1 <0>         0.0000
     15 N1          1.9805   -0.9366    4.2255 N.pl3     1 <0>         0.0000
     16 O1          4.0513   -2.6414    4.0519 O.2       1 <0>         0.0000
     17 O2          4.8795   -3.0639    1.9982 O.3       1 <0>         0.0000
     18 H1         -0.4862    2.2895    7.6486 H         1 <0>         0.0000
     19 H2          1.9032   -1.0805   -1.0798 H         1 <0>         0.0000
     20 H3          0.3083    3.1823    5.4612 H         1 <0>         0.0000
     21 H4         -0.0996   -0.1121    8.2019 H         1 <0>         0.0000
     22 H5          0.1538    0.1842    0.1867 H         1 <0>         0.0000
     23 H6          3.6457   -2.3169    0.1875 H         1 <0>         0.0000
     24 H7          1.4745    1.7109    3.8584 H         1 <0>         0.0000
     25 H8          1.0118   -1.6050    6.5624 H         1 <0>         0.0000
     26 H9          0.1789    0.2373    2.6352 H         1 <0>         0.0000
     27 H10         6.5278   -4.2250    1.8320 H         1 <0>         0.0000
     28 H11         5.4580   -4.6732    3.2018 H         1 <0>         0.0000
     29 H12         6.4891   -3.2265    3.3229 H         1 <0>         0.0000
     30 H13         2.6335   -1.5917    4.6513 H         1 <0>         0.0000
@<TRIPOS>BOND
     1    1    4 ar
     2    1    3 ar
     3    1   18 1
     4    2    5 ar
     5    2    6 ar
     6    2   19 1
     7    3    7 ar
     8    3   20 1
     9    4    8 ar
    10    4   21 1
    11    5    9 ar
    12    5   22 1
    13    6   10 ar
    14    6   23 1
    15    7   11 ar
    16    7   24 1
    17    8   11 ar
    18    8   25 1
    19    9   12 ar
    20    9   26 1
    21   10   12 ar
    22   10   13 1
    23   11   15 1
    24   12   15 1
    25   13   16 2
    26   13   17 1
    27   14   17 1
    28   14   27 1
    29   14   28 1
    30   14   29 1
    31   15   30 1
