@<TRIPOS>MOLECULE
*****
   29    30     0     0     0
SMALL
NO_CHARGES

@<TRIPOS>ATOM
      1 C1          2.4798   -0.3542    0.2600 C.ar      1 <0>         0.0000
      2 C2          2.2835   -2.3345    1.6300 C.ar      1 <0>         0.0000
      3 C3          1.4011    0.2188    0.9335 C.ar      1 <0>         0.0000
      4 C4          1.2048   -1.7615    2.3036 C.ar      1 <0>         0.0000
      5 C5          8.5084   -6.0355    1.1301 C.2       1 <0>         0.0000
      6 C6          2.9210   -1.6309    0.6081 C.ar      1 <0>         0.0000
      7 C7          0.7636   -0.4848    1.9554 C.ar      1 <0>         0.0000
      8 C8          7.5595   -5.8262    2.1089 C.2       1 <0>         0.0000
      9 C9          6.7313   -4.5125    0.5603 C.2       1 <0>         0.0000
     10 C10         4.0458   -2.2284   -0.0937 C.2       1 <0>         0.0000
     11 C11         7.5477   -6.4515    3.4463 C.3       1 <0>         0.0000
     12 C12         4.2921   -1.8483   -1.5581 C.3       1 <0>         0.0000
     13 N1          6.5399   -4.9529    1.7840 N.2       1 <0>         0.0000
     14 N2          4.8242   -3.0776    0.5447 N.2       1 <0>         0.0000
     15 N3          5.8837   -3.6043   -0.0952 N.pl3     1 <0>         0.0000
     16 S1          8.1172   -5.1077   -0.2582 S.3       1 <0>         0.0000
     17 Cl1        -0.5661    0.2226    2.7872 Cl        1 <0>         0.0000
     18 H1          2.9690    0.2027   -0.5351 H         1 <0>         0.0000
     19 H2          2.6190   -3.3298    1.9099 H         1 <0>         0.0000
     20 H3          1.0683    1.2146    0.6522 H         1 <0>         0.0000
     21 H4          0.7177   -2.3218    3.0975 H         1 <0>         0.0000
     22 H5          9.3827   -6.6704    1.1587 H         1 <0>         0.0000
     23 H6          8.0994   -5.8373    4.1765 H         1 <0>         0.0000
     24 H7          6.5223   -6.5883    3.8297 H         1 <0>         0.0000
     25 H8          8.0063   -7.4551    3.4375 H         1 <0>         0.0000
     26 H9          4.9520   -0.9804   -1.6318 H         1 <0>         0.0000
     27 H10         4.7485   -2.6893   -2.0879 H         1 <0>         0.0000
     28 H11         3.3525   -1.5738   -2.0472 H         1 <0>         0.0000
     29 H12         6.1268   -3.3319   -1.0396 H         1 <0>         0.0000
@<TRIPOS>BOND
     1    1    3 ar
     2    1    6 ar
     3    1   18 1
     4    2    4 ar
     5    2    6 ar
     6    2   19 1
     7    3    7 ar
     8    3   20 1
     9    4    7 ar
    10    4   21 1
    11    5    8 2
    12    5   16 1
    13    5   22 1
    14    6   10 1
    15    7   17 1
    16    8   11 1
    17    8   13 1
    18    9   13 2
    19    9   15 1
    20    9   16 1
    21   10   12 1
    22   10   14 2
    23   11   23 1
    24   11   24 1
    25   11   25 1
    26   12   26 1
    27   12   27 1
    28   12   28 1
    29   14   15 1
    30   15   29 1
