@<TRIPOS>MOLECULE
*****
   29    31     0     0     0
SMALL
NO_CHARGES

@<TRIPOS>ATOM
      1 C1          1.9795    1.1943    1.6635 C.ar      1 <0>         0.0000
      2 C2          0.8062    0.7130    1.0687 C.ar      1 <0>         0.0000
      3 C3          1.9623    1.6732    2.9807 C.ar      1 <0>         0.0000
      4 C4         -0.4000    0.7044    1.7828 C.ar      1 <0>         0.0000
      5 C5          0.7612    1.6622    3.6893 C.ar      1 <0>         0.0000
      6 C6         -0.4155    1.1815    3.0930 C.ar      1 <0>         0.0000
      7 C7         -1.5950   -0.6522    6.5409 C.2       1 <0>         0.0000
      8 C8          0.4755    2.1269    5.1031 C.3       1 <0>         0.0000
      9 C9         -1.5724    1.2890    4.0640 C.3       1 <0>         0.0000
     10 C10        -2.8251   -2.2988    7.3354 C.3       1 <0>         0.0000
     11 C11        -3.6178   -0.9728    7.4657 C.3       1 <0>         0.0000
     12 C12        -0.8647    1.4315    5.4408 C.3       1 <0>         0.0000
     13 N1         -1.6081   -1.9339    6.5978 N.2       1 <0>         0.0000
     14 N2         -0.5758    0.1310    6.0618 N.pl3     1 <0>         0.0000
     15 O1         -2.6636    0.0435    7.0546 O.3       1 <0>         0.0000
     16 H1          2.9101    1.1894    1.1016 H         1 <0>         0.0000
     17 H2          0.8338    0.3374    0.0490 H         1 <0>         0.0000
     18 H3          2.8767    2.0404    3.4420 H         1 <0>         0.0000
     19 H4         -1.3075    0.3227    1.3201 H         1 <0>         0.0000
     20 H5          1.2583    1.8741    5.8241 H         1 <0>         0.0000
     21 H6          0.3469    3.2165    5.1264 H         1 <0>         0.0000
     22 H7         -2.1693    2.1864    3.8522 H         1 <0>         0.0000
     23 H8         -2.2522    0.4322    4.0395 H         1 <0>         0.0000
     24 H9         -2.5628   -2.7164    8.3158 H         1 <0>         0.0000
     25 H10        -3.3910   -3.0632    6.7930 H         1 <0>         0.0000
     26 H11        -4.4773   -0.9175    6.7902 H         1 <0>         0.0000
     27 H12        -3.9394   -0.7376    8.4824 H         1 <0>         0.0000
     28 H13        -1.4622    2.0040    6.1495 H         1 <0>         0.0000
     29 H14         0.1090   -0.4328    5.5669 H         1 <0>         0.0000
@<TRIPOS>BOND
     1    1    2 ar
     2    1    3 ar
     3    1   16 1
     4    2    4 ar
     5    2   17 1
     6    3    5 ar
     7    3   18 1
     8    4    6 ar
     9    4   19 1
    10    5    6 ar
    11    5    8 1
    12    6    9 1
    13    7   13 2
    14    7   14 1
    15    7   15 1
    16    8   12 1
    17    8   20 1
    18    8   21 1
    19    9   12 1
    20    9   22 1
    21    9   23 1
    22   10   11 1
    23   10   13 1
    24   10   24 1
    25   10   25 1
    26   11   15 1
    27   11   26 1
    28   11   27 1
    29   12   14 1
    30   12   28 1
    31   14   29 1
