@<TRIPOS>MOLECULE
*****
   24    24     0     0     0
SMALL
NO_CHARGES

@<TRIPOS>ATOM
      1 C1          0.9811    0.9059    0.2073 C.2       1 <0>         0.0000
      2 C2          0.5096   -0.1947   -0.4380 C.2       1 <0>         0.0000
      3 C3          1.6974    2.0293   -0.3820 C.2       1 <0>         0.0000
      4 C4          0.0031   -0.8015    1.8693 C.3       1 <0>         0.0000
      5 C5         -0.2896   -1.1624    0.3955 C.3       1 <0>         0.0000
      6 C6         -2.4734    0.2298    0.1816 C.3       1 <0>         0.0000
      7 C7          2.6191    2.9258   -2.3957 C.3       1 <0>         0.0000
      8 C8         -1.7881   -1.1304    0.0097 C.3       1 <0>         0.0000
      9 O1          2.0675    3.0289    0.2048 O.2       1 <0>         0.0000
     10 O2          0.6227   -0.4933   -1.7475 O.3       1 <0>         0.0000
     11 O3          1.9188    1.8474   -1.7364 O.3       1 <0>         0.0000
     12 S1          0.5914    0.9524    1.9501 S.3       1 <0>         0.0000
     13 H1         -0.8825   -0.9024    2.5002 H         1 <0>         0.0000
     14 H2          0.7927   -1.4396    2.2729 H         1 <0>         0.0000
     15 H3          0.0753   -2.1759    0.1920 H         1 <0>         0.0000
     16 H4         -2.4364    0.5784    1.2175 H         1 <0>         0.0000
     17 H5         -3.5253    0.1635   -0.1143 H         1 <0>         0.0000
     18 H6         -1.9990    0.9969   -0.4382 H         1 <0>         0.0000
     19 H7          2.7085    2.6208   -3.4383 H         1 <0>         0.0000
     20 H8          3.6049    3.0636   -1.9474 H         1 <0>         0.0000
     21 H9          2.0485    3.8528   -2.3114 H         1 <0>         0.0000
     22 H10        -1.8753   -1.4574   -1.0322 H         1 <0>         0.0000
     23 H11        -2.3013   -1.8853    0.6179 H         1 <0>         0.0000
     24 H12         1.1209    0.2357   -2.1754 H         1 <0>         0.0000
@<TRIPOS>BOND
     1    1    2 2
     2    1    3 1
     3    1   12 1
     4    2    5 1
     5    2   10 1
     6    3    9 2
     7    3   11 1
     8    4    5 1
     9    4   12 1
    10    4   13 1
    11    4   14 1
    12    5    8 1
    13    5   15 1
    14    6    8 1
    15    6   16 1
    16    6   17 1
    17    6   18 1
    18    7   11 1
    19    7   19 1
    20    7   20 1
    21    7   21 1
    22    8   22 1
    23    8   23 1
    24   10   24 1
