@<TRIPOS>MOLECULE
*****
   24    24     0     0     0
SMALL
NO_CHARGES

@<TRIPOS>ATOM
      1 C1          0.4095   -0.7927   -0.5995 C.2       1 <0>         0.0000
      2 C2          0.9540    1.6322   -1.0092 C.2       1 <0>         0.0000
      3 C3         -0.6108   -0.7047    1.6272 C.3       1 <0>         0.0000
      4 C4          1.1298    0.4605   -0.0557 C.3       1 <0>         0.0000
      5 C5         -0.8461   -1.1534    0.1828 C.3       1 <0>         0.0000
      6 C6         -3.4034   -0.9996    0.0802 C.3       1 <0>         0.0000
      7 C7          1.9352    3.6328   -1.7870 C.3       1 <0>         0.0000
      8 C8         -2.0745   -0.4915   -0.4886 C.3       1 <0>         0.0000
      9 O1          0.8411   -1.4064   -1.5524 O.2       1 <0>         0.0000
     10 O2         -0.0200    1.8198   -1.7100 O.2       1 <0>         0.0000
     11 O3          2.0211    2.4547   -0.9529 O.3       1 <0>         0.0000
     12 S1          0.3735    0.8636    1.5729 S.3       1 <0>         0.0000
     13 H1         -1.5369   -0.4892    2.1623 H         1 <0>         0.0000
     14 H2         -0.0512   -1.4566    2.1895 H         1 <0>         0.0000
     15 H3          2.1927    0.2371    0.0557 H         1 <0>         0.0000
     16 H4         -0.9617   -2.2409    0.1301 H         1 <0>         0.0000
     17 H5         -3.4966   -2.0852   -0.0374 H         1 <0>         0.0000
     18 H6         -4.2439   -0.5329   -0.4434 H         1 <0>         0.0000
     19 H7         -3.5148   -0.7674    1.1447 H         1 <0>         0.0000
     20 H8          2.8622    4.1779   -1.6126 H         1 <0>         0.0000
     21 H9          1.0704    4.2351   -1.5003 H         1 <0>         0.0000
     22 H10         1.8453    3.3447   -2.8365 H         1 <0>         0.0000
     23 H11        -2.0020    0.5949   -0.3882 H         1 <0>         0.0000
     24 H12        -2.0294   -0.7054   -1.5609 H         1 <0>         0.0000
@<TRIPOS>BOND
     1    1    4 1
     2    1    5 1
     3    1    9 2
     4    2    4 1
     5    2   10 2
     6    2   11 1
     7    3    5 1
     8    3   12 1
     9    3   13 1
    10    3   14 1
    11    4   12 1
    12    4   15 1
    13    5    8 1
    14    5   16 1
    15    6    8 1
    16    6   17 1
    17    6   18 1
    18    6   19 1
    19    7   11 1
    20    7   20 1
    21    7   21 1
    22    7   22 1
    23    8   23 1
    24    8   24 1
