@<TRIPOS>MOLECULE
*****
   35    35     0     0     0
SMALL
NO_CHARGES

@<TRIPOS>ATOM
      1 C1          1.8851   -1.0363   -0.1124 C.ar      1 <0>         0.0000
      2 C2          0.8066   -0.4630    0.5610 C.ar      1 <0>         0.0000
      3 C3          2.9210   -1.6309    0.6081 C.ar      1 <0>         0.0000
      4 C4          1.7997   -1.0786    2.6757 C.ar      1 <0>         0.0000
      5 C5          0.7638   -0.4841    1.9551 C.ar      1 <0>         0.0000
      6 C6          2.8783   -1.6520    2.0022 C.ar      1 <0>         0.0000
      7 C7          4.0447   -2.3663    4.1125 C.2       1 <0>         0.0000
      8 C8          5.3152   -3.0828    4.4957 C.3       1 <0>         0.0000
      9 C9         -1.2133   -3.8747    3.8148 C.3       1 <0>         0.0000
     10 C10        -3.0623   -2.2159    1.1749 C.3       1 <0>         0.0000
     11 C11        -0.2532   -2.9028    3.2180 C.3       1 <0>         0.0000
     12 C12        -1.6120   -2.5610    1.1541 C.3       1 <0>         0.0000
     13 N1         -0.3168    0.0926    2.6302 N.2       1 <0>         0.0000
     14 N2         -1.2158   -0.7587    2.8034 N.2       1 <0>         0.0000
     15 N3          3.9135   -2.2490    2.7224 N.am      1 <0>         0.0000
     16 N4         -0.9233   -2.0004    2.3038 N.pl3     1 <0>         0.0000
     17 O1          3.2658   -1.9659    4.9716 O.2       1 <0>         0.0000
     18 H1          1.9180   -1.0202   -1.1978 H         1 <0>         0.0000
     19 H2          0.0041   -0.0019   -0.0087 H         1 <0>         0.0000
     20 H3          3.7561   -2.0761    0.0734 H         1 <0>         0.0000
     21 H4          1.7638   -1.0938    3.7630 H         1 <0>         0.0000
     22 H5          6.1257   -2.3590    4.6187 H         1 <0>         0.0000
     23 H6          5.5905   -3.7933    3.7111 H         1 <0>         0.0000
     24 H7          5.1675   -3.6299    5.4315 H         1 <0>         0.0000
     25 H8         -1.6834   -4.4650    3.0145 H         1 <0>         0.0000
     26 H9         -0.6759   -4.5476    4.4992 H         1 <0>         0.0000
     27 H10        -1.9892   -3.3287    4.3715 H         1 <0>         0.0000
     28 H11        -3.1797   -1.1223    1.1603 H         1 <0>         0.0000
     29 H12        -3.5548   -2.6493    0.2920 H         1 <0>         0.0000
     30 H13        -3.5225   -2.6218    2.0878 H         1 <0>         0.0000
     31 H14         0.2122   -2.3168    4.0242 H         1 <0>         0.0000
     32 H15         0.5243   -3.4560    2.6710 H         1 <0>         0.0000
     33 H16        -1.5031   -3.6555    1.1688 H         1 <0>         0.0000
     34 H17        -1.1607   -2.1600    0.2346 H         1 <0>         0.0000
     35 H18         4.6774   -2.6555    2.1702 H         1 <0>         0.0000
@<TRIPOS>BOND
     1    1    2 ar
     2    1    3 ar
     3    1   18 1
     4    2    5 ar
     5    2   19 1
     6    3    6 ar
     7    3   20 1
     8    4    5 ar
     9    4    6 ar
    10    4   21 1
    11    5   13 1
    12    6   15 1
    13    7    8 1
    14    7   15 am
    15    7   17 2
    16    8   22 1
    17    8   23 1
    18    8   24 1
    19    9   11 1
    20    9   25 1
    21    9   26 1
    22    9   27 1
    23   10   12 1
    24   10   28 1
    25   10   29 1
    26   10   30 1
    27   11   16 1
    28   11   31 1
    29   11   32 1
    30   12   16 1
    31   12   33 1
    32   12   34 1
    33   13   14 2
    34   14   16 1
    35   15   35 1
