@<TRIPOS>MOLECULE
*****
   71    75     0     0     0
SMALL
NO_CHARGES

@<TRIPOS>ATOM
      1 C1          4.4295   -1.1777   -3.8617 C.ar      1 <0>         0.0000
      2 C2          4.4894   -1.6497   -2.5451 C.ar      1 <0>         0.0000
      3 C3          3.4016   -0.3037   -4.2302 C.ar      1 <0>         0.0000
      4 C4          1.0878  -15.8053   -6.6497 C.ar      1 <0>         0.0000
      5 C5          2.3889  -16.2479   -6.9020 C.ar      1 <0>         0.0000
      6 C6          3.5275   -1.2603   -1.6130 C.ar      1 <0>         0.0000
      7 C7          2.4449    0.0925   -3.2918 C.ar      1 <0>         0.0000
      8 C8          1.0557   -3.1647    0.7724 C.ar      1 <0>         0.0000
      9 C9          0.7330   -2.9235   -1.5968 C.ar      1 <0>         0.0000
     10 C10        -1.3069   -0.9038    1.1803 C.ar      1 <0>         0.0000
     11 C11         1.1408   -4.5448    0.6278 C.ar      1 <0>         0.0000
     12 C12         0.8073   -4.3093   -1.7603 C.ar      1 <0>         0.0000
     13 C13        -2.1341   -0.4489    2.2066 C.ar      1 <0>         0.0000
     14 C14         0.8820  -14.8896   -5.6189 C.ar      1 <0>         0.0000
     15 C15        -0.4144    1.1321    2.8488 C.ar      1 <0>         0.0000
     16 C16         3.4224  -15.7502   -6.1040 C.ar      1 <0>         0.0000
     17 C17         0.8693   -2.3204   -0.3393 C.ar      1 <0>         0.0000
     18 C18         2.4819   -0.3891   -1.9711 C.ar      1 <0>         0.0000
     19 C19        -0.0397   -0.3457    0.9519 C.ar      1 <0>         0.0000
     20 C20         0.4134    0.6812    1.8180 C.ar      1 <0>         0.0000
     21 C21         1.0224   -5.1286   -0.6435 C.ar      1 <0>         0.0000
     22 C22        -1.6845    0.5797    3.0429 C.ar      1 <0>         0.0000
     23 C23         1.9861  -14.4451   -4.8746 C.ar      1 <0>         0.0000
     24 C24         0.8079   -0.8453   -0.1640 C.2       1 <0>         0.0000
     25 C25         1.4661    0.0314   -0.9721 C.2       1 <0>         0.0000
     26 C26         1.7984    1.2619    1.6454 C.3       1 <0>         0.0000
     27 C27         1.2127    1.5213   -0.8257 C.3       1 <0>         0.0000
     28 C28         1.9444    2.1374    0.3838 C.3       1 <0>         0.0000
     29 C29         1.8223  -13.4396   -3.7695 C.3       1 <0>         0.0000
     30 C30         1.2084   -8.6308   -1.7368 C.3       1 <0>         0.0000
     31 C31         1.1185   -9.4160   -3.0510 C.3       1 <0>         0.0000
     32 C32         1.0317   -7.1357   -1.9607 C.3       1 <0>         0.0000
     33 C33         1.3280  -10.9124   -2.8309 C.3       1 <0>         0.0000
     34 N1          3.2374  -14.8687   -5.1121 N.ar      1 <0>         0.0000
     35 O1          2.4903  -11.2329   -5.2397 O.2       1 <0>         0.0000
     36 O2         -2.4412    1.0781    4.0778 O.3       1 <0>         0.0000
     37 O3          1.1207   -6.4946   -0.6873 O.3       1 <0>         0.0000
     38 S1          1.3122  -11.7845   -4.4597 S.o       1 <0>         0.0000
     39 H1          5.1766   -1.4839   -4.5894 H         1 <0>         0.0000
     40 H2          5.2889   -2.3224   -2.2442 H         1 <0>         0.0000
     41 H3          3.3430    0.0690   -5.2499 H         1 <0>         0.0000
     42 H4          0.2520  -16.1652   -7.2442 H         1 <0>         0.0000
     43 H5          2.6018  -16.9595   -7.6945 H         1 <0>         0.0000
     44 H6          3.5769   -1.6359   -0.5955 H         1 <0>         0.0000
     45 H7          1.6442    0.7618   -3.5966 H         1 <0>         0.0000
     46 H8          1.1440   -2.7273    1.7632 H         1 <0>         0.0000
     47 H9          0.5704   -2.2997   -2.4700 H         1 <0>         0.0000
     48 H10        -1.6522   -1.7081    0.5369 H         1 <0>         0.0000
     49 H11         1.2995   -5.1920    1.4858 H         1 <0>         0.0000
     50 H12         0.6975   -4.7301   -2.7533 H         1 <0>         0.0000
     51 H13        -3.1177   -0.8919    2.3563 H         1 <0>         0.0000
     52 H14        -0.1143  -14.5169   -5.3949 H         1 <0>         0.0000
     53 H15        -0.0792    1.9138    3.5255 H         1 <0>         0.0000
     54 H16         4.4494  -16.0725   -6.2684 H         1 <0>         0.0000
     55 H17         2.0754    1.8405    2.5320 H         1 <0>         0.0000
     56 H18         2.5113    0.4330    1.5691 H         1 <0>         0.0000
     57 H19         1.5203    2.0501   -1.7318 H         1 <0>         0.0000
     58 H20         0.1381    1.6915   -0.7005 H         1 <0>         0.0000
     59 H21         1.5327    3.1375    0.5660 H         1 <0>         0.0000
     60 H22         3.0108    2.2623    0.1629 H         1 <0>         0.0000
     61 H23         1.0372  -13.7297   -3.0630 H         1 <0>         0.0000
     62 H24         2.7740  -13.3008   -3.2524 H         1 <0>         0.0000
     63 H25         0.4437   -8.9750   -1.0307 H         1 <0>         0.0000
     64 H26         2.1815   -8.8019   -1.2626 H         1 <0>         0.0000
     65 H27         1.8776   -9.0600   -3.7558 H         1 <0>         0.0000
     66 H28         0.1413   -9.2458   -3.5209 H         1 <0>         0.0000
     67 H29         0.0553   -6.9248   -2.4188 H         1 <0>         0.0000
     68 H30         1.8129   -6.7510   -2.6302 H         1 <0>         0.0000
     69 H31         2.3027  -11.1094   -2.3724 H         1 <0>         0.0000
     70 H32         0.5384  -11.3505   -2.2098 H         1 <0>         0.0000
     71 H33        -3.2900    0.6086    4.1003 H         1 <0>         0.0000
@<TRIPOS>BOND
     1    1    3 ar
     2    1    2 ar
     3    1   39 1
     4    2    6 ar
     5    2   40 1
     6    3    7 ar
     7    3   41 1
     8    4    5 ar
     9    4   14 ar
    10    4   42 1
    11    5   16 ar
    12    5   43 1
    13    6   18 ar
    14    6   44 1
    15    7   18 ar
    16    7   45 1
    17    8   11 ar
    18    8   17 ar
    19    8   46 1
    20    9   12 ar
    21    9   17 ar
    22    9   47 1
    23   10   13 ar
    24   10   19 ar
    25   10   48 1
    26   11   21 ar
    27   11   49 1
    28   12   21 ar
    29   12   50 1
    30   13   22 ar
    31   13   51 1
    32   14   23 ar
    33   14   52 1
    34   15   20 ar
    35   15   22 ar
    36   15   53 1
    37   16   34 ar
    38   16   54 1
    39   17   24 1
    40   18   25 1
    41   19   20 ar
    42   19   24 1
    43   20   26 1
    44   21   37 1
    45   22   36 1
    46   23   29 1
    47   23   34 ar
    48   24   25 2
    49   25   27 1
    50   26   28 1
    51   26   55 1
    52   26   56 1
    53   27   28 1
    54   27   57 1
    55   27   58 1
    56   28   59 1
    57   28   60 1
    58   29   38 1
    59   29   61 1
    60   29   62 1
    61   30   31 1
    62   30   32 1
    63   30   63 1
    64   30   64 1
    65   31   33 1
    66   31   65 1
    67   31   66 1
    68   32   37 1
    69   32   67 1
    70   32   68 1
    71   33   38 1
    72   33   69 1
    73   33   70 1
    74   35   38 2
    75   36   71 1
