@<TRIPOS>MOLECULE
*****
   62    66     0     0     0
SMALL
NO_CHARGES

@<TRIPOS>ATOM
      1 C1          5.4932   -4.8756   -7.3837 C.ar      1 <0>         0.0000
      2 C2          4.3649   -4.5730   -6.6348 C.ar      1 <0>         0.0000
      3 C3          5.4130   -5.5534   -8.6275 C.ar      1 <0>         0.0000
      4 C4          2.1134   -0.5266   -2.6529 C.ar      1 <0>         0.0000
      5 C5         -0.0252   -0.4383   -0.8709 C.ar      1 <0>         0.0000
      6 C6          0.9309   -5.3570   -7.6351 C.2       1 <0>         0.0000
      7 C7          3.1038   -4.9520   -7.1415 C.ar      1 <0>         0.0000
      8 C8          1.1073   -1.5043   -2.7424 C.ar      1 <0>         0.0000
      9 C9          1.7431   -4.7777   -6.6813 C.2       1 <0>         0.0000
     10 C10         1.3148   -4.1020   -5.4534 C.2       1 <0>         0.0000
     11 C11         1.7342   -2.8047   -4.9774 C.2       1 <0>         0.0000
     12 C12         0.0276   -1.4518   -1.8267 C.ar      1 <0>         0.0000
     13 C13         3.0345   -5.6361   -8.3787 C.ar      1 <0>         0.0000
     14 C14         4.1766   -5.9447   -9.1349 C.ar      1 <0>         0.0000
     15 C15         2.0434    0.4894   -1.7027 C.ar      1 <0>         0.0000
     16 C16         0.9696    0.5396   -0.7961 C.ar      1 <0>         0.0000
     17 C17         1.1325   -2.5946   -3.7245 C.2       1 <0>         0.0000
     18 C18         0.4797   -4.6418   -4.4874 C.2       1 <0>         0.0000
     19 C19         2.5752   -1.8700   -5.7444 C.2       1 <0>         0.0000
     20 C20        -1.0518   -2.5058   -1.9069 C.3       1 <0>         0.0000
     21 C21        -0.4368   -3.8582   -2.2568 C.3       1 <0>         0.0000
     22 C22        -0.1676   -5.9877   -4.4202 C.3       1 <0>         0.0000
     23 C23         3.1263   -1.9079   -9.3396 C.3       1 <0>         0.0000
     24 C24         5.0867   -6.9215  -11.1164 C.3       1 <0>         0.0000
     25 C25         2.7082    2.6917   -2.2158 C.3       1 <0>         0.0000
     26 C26         1.8527    1.5362    1.1681 C.3       1 <0>         0.0000
     27 C27         3.3325   -1.3560   -7.9400 C.3       1 <0>         0.0000
     28 N1          1.7049   -5.8804   -8.6592 N.pl3     1 <0>         0.0000
     29 N2          0.3570   -3.7120   -3.4718 N.pl3     1 <0>         0.0000
     30 O1          3.3750   -1.0596   -5.2903 O.2       1 <0>         0.0000
     31 O2          3.9488   -6.5995  -10.3225 O.3       1 <0>         0.0000
     32 O3          3.0606    1.4245   -1.6405 O.3       1 <0>         0.0000
     33 O4          0.8481    1.5454    0.1396 O.3       1 <0>         0.0000
     34 O5          2.3863   -2.0250   -7.0752 O.3       1 <0>         0.0000
     35 H1          6.4747   -4.5876   -7.0164 H         1 <0>         0.0000
     36 H2          4.4504   -4.0501   -5.6869 H         1 <0>         0.0000
     37 H3          6.3262   -5.7610   -9.1740 H         1 <0>         0.0000
     38 H4          2.9569   -0.5473   -3.3310 H         1 <0>         0.0000
     39 H5         -0.8461   -0.3895   -0.1596 H         1 <0>         0.0000
     40 H6         -0.1491   -5.4031   -7.6785 H         1 <0>         0.0000
     41 H7         -1.5929   -2.5800   -0.9590 H         1 <0>         0.0000
     42 H8         -1.7822   -2.2400   -2.6831 H         1 <0>         0.0000
     43 H9          0.2025   -4.2115   -1.4371 H         1 <0>         0.0000
     44 H10        -1.2100   -4.6079   -2.4328 H         1 <0>         0.0000
     45 H11         0.0480   -6.4991   -3.4748 H         1 <0>         0.0000
     46 H12        -1.2592   -5.9359   -4.5266 H         1 <0>         0.0000
     47 H13         0.2159   -6.6086   -5.2322 H         1 <0>         0.0000
     48 H14         3.3236   -2.9826   -9.3605 H         1 <0>         0.0000
     49 H15         2.1012   -1.7338   -9.6813 H         1 <0>         0.0000
     50 H16         3.8122   -1.4132  -10.0358 H         1 <0>         0.0000
     51 H17         4.7030   -7.4309  -12.0017 H         1 <0>         0.0000
     52 H18         5.7699   -7.5896  -10.5779 H         1 <0>         0.0000
     53 H19         5.6268   -6.0167  -11.4213 H         1 <0>         0.0000
     54 H20         3.5845    3.3340   -2.1048 H         1 <0>         0.0000
     55 H21         1.8537    3.1363   -1.6936 H         1 <0>         0.0000
     56 H22         2.4723    2.5748   -3.2804 H         1 <0>         0.0000
     57 H23         1.6173    2.3737    1.8281 H         1 <0>         0.0000
     58 H24         2.8533    1.6612    0.7452 H         1 <0>         0.0000
     59 H25         1.8052    0.5985    1.7360 H         1 <0>         0.0000
     60 H26         3.1560   -0.2767   -7.8898 H         1 <0>         0.0000
     61 H27         4.3429   -1.5530   -7.5724 H         1 <0>         0.0000
     62 H28         1.3675   -6.3392   -9.4923 H         1 <0>         0.0000
@<TRIPOS>BOND
     1    1    2 ar
     2    1    3 ar
     3    1   35 1
     4    2    7 ar
     5    2   36 1
     6    3   14 ar
     7    3   37 1
     8    4    8 ar
     9    4   15 ar
    10    4   38 1
    11    5   12 ar
    12    5   16 ar
    13    5   39 1
    14    6    9 2
    15    6   28 1
    16    6   40 1
    17    7    9 1
    18    7   13 ar
    19    8   12 ar
    20    8   17 1
    21    9   10 1
    22   10   11 1
    23   10   18 2
    24   11   17 2
    25   11   19 1
    26   12   20 1
    27   13   14 ar
    28   13   28 1
    29   14   31 1
    30   15   16 ar
    31   15   32 1
    32   16   33 1
    33   17   29 1
    34   18   22 1
    35   18   29 1
    36   19   30 2
    37   19   34 1
    38   20   21 1
    39   20   41 1
    40   20   42 1
    41   21   29 1
    42   21   43 1
    43   21   44 1
    44   22   45 1
    45   22   46 1
    46   22   47 1
    47   23   27 1
    48   23   48 1
    49   23   49 1
    50   23   50 1
    51   24   31 1
    52   24   51 1
    53   24   52 1
    54   24   53 1
    55   25   32 1
    56   25   54 1
    57   25   55 1
    58   25   56 1
    59   26   33 1
    60   26   57 1
    61   26   58 1
    62   26   59 1
    63   27   34 1
    64   27   60 1
    65   27   61 1
    66   28   62 1
