@<TRIPOS>MOLECULE
*****
   71    75     0     0     0
SMALL
NO_CHARGES

@<TRIPOS>ATOM
      1 C1          3.6748   -2.5414   -4.2259 C.ar      1 <0>         0.0000
      2 C2          3.8050   -3.0129   -2.9142 C.ar      1 <0>         0.0000
      3 C3          2.7836   -1.4962   -4.4912 C.ar      1 <0>         0.0000
      4 C4          7.9984   -6.7822   -5.2432 C.ar      1 <0>         0.0000
      5 C5          8.3324   -5.4413   -5.4508 C.ar      1 <0>         0.0000
      6 C6          3.0491   -2.4527   -1.8836 C.ar      1 <0>         0.0000
      7 C7          2.0435   -0.9212   -3.4547 C.ar      1 <0>         0.0000
      8 C8          0.3986   -3.7911    0.7981 C.ar      1 <0>         0.0000
      9 C9         -0.1244   -3.4193   -1.5175 C.ar      1 <0>         0.0000
     10 C10        -1.2056   -1.0262    1.4889 C.ar      1 <0>         0.0000
     11 C11         0.0627   -5.1356    0.6639 C.ar      1 <0>         0.0000
     12 C12        -0.4830   -4.7604   -1.6634 C.ar      1 <0>         0.0000
     13 C13        -1.7515   -0.3985    2.6081 C.ar      1 <0>         0.0000
     14 C14         6.6750   -7.1081   -4.9477 C.ar      1 <0>         0.0000
     15 C15         0.3761    0.6954    2.9923 C.ar      1 <0>         0.0000
     16 C16         7.3205   -4.4836   -5.3442 C.ar      1 <0>         0.0000
     17 C17         0.3274   -2.9054   -0.2922 C.ar      1 <0>         0.0000
     18 C18         2.1559   -1.3952   -2.1358 C.ar      1 <0>         0.0000
     19 C19         0.1194   -0.7965    1.0871 C.ar      1 <0>         0.0000
     20 C20         0.9231    0.0715    1.8687 C.ar      1 <0>         0.0000
     21 C21        -0.3846   -5.6318   -0.5688 C.ar      1 <0>         0.0000
     22 C22        -0.9543    0.4713    3.3613 C.ar      1 <0>         0.0000
     23 C23         5.7286   -6.0747   -4.8689 C.ar      1 <0>         0.0000
     24 C24         0.6633   -1.4673   -0.1247 C.2       1 <0>         0.0000
     25 C25         1.4003   -0.7618   -1.0254 C.2       1 <0>         0.0000
     26 C26         2.3724    0.2979    1.5026 C.3       1 <0>         0.0000
     27 C27         1.5400    0.7417   -0.8690 C.3       1 <0>         0.0000
     28 C28         2.5570    1.1365    0.2209 C.3       1 <0>         0.0000
     29 C29         4.2995   -6.3738   -4.5185 C.3       1 <0>         0.0000
     30 C30         0.6213   -8.6585   -1.6168 C.3       1 <0>         0.0000
     31 C31         1.9716   -7.9392   -1.4842 C.3       1 <0>         0.0000
     32 C32        -0.5859   -7.7382   -1.7757 C.3       1 <0>         0.0000
     33 C33         2.3500   -7.1403   -2.7330 C.3       1 <0>         0.0000
     34 N1          6.0462   -4.7823   -5.0578 N.ar      1 <0>         0.0000
     35 O1          4.8496   -8.1495   -2.5624 O.2       1 <0>         0.0000
     36 O2         -1.4205    1.1240    4.4785 O.3       1 <0>         0.0000
     37 O3         -0.7692   -6.9501   -0.5892 O.3       1 <0>         0.0000
     38 S1          4.1690   -6.7938   -2.7071 S.o       1 <0>         0.0000
     39 H1          4.2823   -2.9833   -5.0099 H         1 <0>         0.0000
     40 H2          4.5190   -3.8024   -2.6976 H         1 <0>         0.0000
     41 H3          2.6714   -1.1207   -5.5057 H         1 <0>         0.0000
     42 H4          8.7558   -7.5594   -5.3051 H         1 <0>         0.0000
     43 H5          9.3491   -5.1394   -5.6854 H         1 <0>         0.0000
     44 H6          3.1547   -2.8235   -0.8680 H         1 <0>         0.0000
     45 H7          1.3555   -0.1079   -3.6741 H         1 <0>         0.0000
     46 H8          0.7283   -3.4193    1.7645 H         1 <0>         0.0000
     47 H9         -0.2173   -2.7534   -2.3696 H         1 <0>         0.0000
     48 H10        -1.8223   -1.7071    0.9092 H         1 <0>         0.0000
     49 H11         0.1296   -5.8188    1.5058 H         1 <0>         0.0000
     50 H12        -0.8721   -5.1025   -2.6170 H         1 <0>         0.0000
     51 H13        -2.7858   -0.5861    2.8929 H         1 <0>         0.0000
     52 H14         6.3712   -8.1305   -4.7485 H         1 <0>         0.0000
     53 H15         0.9804    1.3584    3.6058 H         1 <0>         0.0000
     54 H16         7.5408   -3.4275   -5.4923 H         1 <0>         0.0000
     55 H17         2.8994    0.7734    2.3355 H         1 <0>         0.0000
     56 H18         2.8435   -0.6783    1.3420 H         1 <0>         0.0000
     57 H19         1.8420    1.1942   -1.8175 H         1 <0>         0.0000
     58 H20         0.5665    1.1665   -0.6016 H         1 <0>         0.0000
     59 H21         2.4314    2.2030    0.4433 H         1 <0>         0.0000
     60 H22         3.5815    1.0008   -0.1448 H         1 <0>         0.0000
     61 H23         3.6598   -5.5118   -4.7161 H         1 <0>         0.0000
     62 H24         3.9309   -7.2628   -5.0379 H         1 <0>         0.0000
     63 H25         0.6493   -9.3376   -2.4799 H         1 <0>         0.0000
     64 H26         0.4628   -9.2809   -0.7293 H         1 <0>         0.0000
     65 H27         2.7464   -8.6939   -1.3146 H         1 <0>         0.0000
     66 H28         1.9631   -7.2820   -0.6086 H         1 <0>         0.0000
     67 H29        -1.4996   -8.3285   -1.8945 H         1 <0>         0.0000
     68 H30        -0.4837   -7.1043   -2.6602 H         1 <0>         0.0000
     69 H31         2.1529   -7.7207   -3.6414 H         1 <0>         0.0000
     70 H32         1.8429   -6.1726   -2.7972 H         1 <0>         0.0000
     71 H33        -2.3483    0.8783    4.6215 H         1 <0>         0.0000
@<TRIPOS>BOND
     1    1    3 ar
     2    1    2 ar
     3    1   39 1
     4    2    6 ar
     5    2   40 1
     6    3    7 ar
     7    3   41 1
     8    4    5 ar
     9    4   14 ar
    10    4   42 1
    11    5   16 ar
    12    5   43 1
    13    6   18 ar
    14    6   44 1
    15    7   18 ar
    16    7   45 1
    17    8   11 ar
    18    8   17 ar
    19    8   46 1
    20    9   12 ar
    21    9   17 ar
    22    9   47 1
    23   10   13 ar
    24   10   19 ar
    25   10   48 1
    26   11   21 ar
    27   11   49 1
    28   12   21 ar
    29   12   50 1
    30   13   22 ar
    31   13   51 1
    32   14   23 ar
    33   14   52 1
    34   15   20 ar
    35   15   22 ar
    36   15   53 1
    37   16   34 ar
    38   16   54 1
    39   17   24 1
    40   18   25 1
    41   19   20 ar
    42   19   24 1
    43   20   26 1
    44   21   37 1
    45   22   36 1
    46   23   29 1
    47   23   34 ar
    48   24   25 2
    49   25   27 1
    50   26   28 1
    51   26   55 1
    52   26   56 1
    53   27   28 1
    54   27   57 1
    55   27   58 1
    56   28   59 1
    57   28   60 1
    58   29   38 1
    59   29   61 1
    60   29   62 1
    61   30   31 1
    62   30   32 1
    63   30   63 1
    64   30   64 1
    65   31   33 1
    66   31   65 1
    67   31   66 1
    68   32   37 1
    69   32   67 1
    70   32   68 1
    71   33   38 1
    72   33   69 1
    73   33   70 1
    74   35   38 2
    75   36   71 1
