@<TRIPOS>MOLECULE
*****
   72    76     0     0     0
SMALL
NO_CHARGES

@<TRIPOS>ATOM
      1 C1          2.7656   -3.6654   -4.0456 C.ar      1 <0>         0.0000
      2 C2         -6.3010  -15.3271   -2.1326 C.ar      1 <0>         0.0000
      3 C3          3.0841   -3.7419   -2.6845 C.ar      1 <0>         0.0000
      4 C4          1.9876   -2.5992   -4.5084 C.ar      1 <0>         0.0000
      5 C5         -6.9321  -14.7119   -1.0458 C.ar      1 <0>         0.0000
      6 C6         -4.9040  -15.3219   -2.2303 C.ar      1 <0>         0.0000
      7 C7          2.6222   -2.7695   -1.7975 C.ar      1 <0>         0.0000
      8 C8          1.5345   -1.6212   -3.6191 C.ar      1 <0>         0.0000
      9 C9          0.5602   -2.8198    1.5472 C.ar      1 <0>         0.0000
     10 C10        -0.4001   -3.1288   -0.6339 C.ar      1 <0>         0.0000
     11 C11        -0.7450    0.2045    1.5364 C.ar      1 <0>         0.0000
     12 C12         0.1681   -4.1032    1.9102 C.ar      1 <0>         0.0000
     13 C13        -0.8101   -4.4180   -0.2837 C.ar      1 <0>         0.0000
     14 C14        -1.0282    1.2104    2.4597 C.ar      1 <0>         0.0000
     15 C15        -6.1723  -14.0805   -0.0553 C.ar      1 <0>         0.0000
     16 C16        -4.1361  -14.6982   -1.2426 C.ar      1 <0>         0.0000
     17 C17         1.2001    2.1007    2.1251 C.ar      1 <0>         0.0000
     18 C18         0.3022   -2.3096    0.2599 C.ar      1 <0>         0.0000
     19 C19         1.8317   -1.6952   -2.2465 C.ar      1 <0>         0.0000
     20 C20         0.4921    0.1348    0.8775 C.ar      1 <0>         0.0000
     21 C21         1.4836    1.0969    1.1962 C.ar      1 <0>         0.0000
     22 C22        -0.5173   -4.9165    0.9934 C.ar      1 <0>         0.0000
     23 C23        -0.0487    2.1670    2.7513 C.ar      1 <0>         0.0000
     24 C24        -4.7833  -14.0716   -0.1744 C.ar      1 <0>         0.0000
     25 C25         0.7519   -0.9429   -0.1145 C.2       1 <0>         0.0000
     26 C26         1.3563   -0.6535   -1.3003 C.2       1 <0>         0.0000
     27 C27         2.8512    1.0160    0.5572 C.3       1 <0>         0.0000
     28 C28         1.6257    0.7941   -1.6708 C.3       1 <0>         0.0000
     29 C29         2.8511    1.3809   -0.9415 C.3       1 <0>         0.0000
     30 C30        -2.5039   -9.3756    0.3685 C.3       1 <0>         0.0000
     31 C31        -1.7782   -8.3589    1.2570 C.3       1 <0>         0.0000
     32 C32        -2.7417  -10.7126    1.0827 C.3       1 <0>         0.0000
     33 C33        -1.5448   -7.0382    0.5386 C.3       1 <0>         0.0000
     34 C34        -3.4691  -11.7143    0.1904 C.3       1 <0>         0.0000
     35 O1         -4.8044  -12.8581    2.2278 O.2       1 <0>         0.0000
     36 O2         -0.2524    3.1859    3.6524 O.3       1 <0>         0.0000
     37 O3         -0.8614   -6.1647    1.4396 O.3       1 <0>         0.0000
     38 S1         -3.8192  -13.2626    1.1427 S.o       1 <0>         0.0000
     39 H1          3.1236   -4.4240   -4.7370 H         1 <0>         0.0000
     40 H2         -6.8951  -15.8195   -2.8980 H         1 <0>         0.0000
     41 H3          3.6963   -4.5606   -2.3139 H         1 <0>         0.0000
     42 H4          1.7322   -2.5287   -5.5630 H         1 <0>         0.0000
     43 H5         -8.0160  -14.7272   -0.9662 H         1 <0>         0.0000
     44 H6         -4.4134  -15.8104   -3.0681 H         1 <0>         0.0000
     45 H7          2.8686   -2.8388   -0.7424 H         1 <0>         0.0000
     46 H8          0.9204   -0.8051   -3.9917 H         1 <0>         0.0000
     47 H9          1.0843   -2.1996    2.2695 H         1 <0>         0.0000
     48 H10        -0.6304   -2.7557   -1.6269 H         1 <0>         0.0000
     49 H11        -1.5019   -0.5432    1.3170 H         1 <0>         0.0000
     50 H12         0.3808   -4.4983    2.8995 H         1 <0>         0.0000
     51 H13        -1.3522   -5.0144   -1.0086 H         1 <0>         0.0000
     52 H14        -2.0000    1.2481    2.9499 H         1 <0>         0.0000
     53 H15        -6.6282  -13.6058    0.8098 H         1 <0>         0.0000
     54 H16        -3.0497  -14.7075   -1.3051 H         1 <0>         0.0000
     55 H17         1.9516    2.8413    2.3857 H         1 <0>         0.0000
     56 H18         3.5548    1.6588    1.0951 H         1 <0>         0.0000
     57 H19         3.2170   -0.0122    0.6574 H         1 <0>         0.0000
     58 H20         1.7773    0.8888   -2.7494 H         1 <0>         0.0000
     59 H21         0.7499    1.3988   -1.4126 H         1 <0>         0.0000
     60 H22         2.8411    2.4704   -1.0672 H         1 <0>         0.0000
     61 H23         3.7788    1.0118   -1.3943 H         1 <0>         0.0000
     62 H24        -3.4693   -8.9618    0.0484 H         1 <0>         0.0000
     63 H25        -1.9217   -9.5465   -0.5473 H         1 <0>         0.0000
     64 H26        -2.3609   -8.1704    2.1658 H         1 <0>         0.0000
     65 H27        -0.8103   -8.7612    1.5778 H         1 <0>         0.0000
     66 H28        -1.7805  -11.1332    1.4048 H         1 <0>         0.0000
     67 H29        -3.3368  -10.5485    1.9873 H         1 <0>         0.0000
     68 H30        -2.5004   -6.5883    0.2348 H         1 <0>         0.0000
     69 H31        -0.9378   -7.1906   -0.3648 H         1 <0>         0.0000
     70 H32        -4.4416  -11.3355   -0.1396 H         1 <0>         0.0000
     71 H33        -2.8774  -11.9985   -0.6865 H         1 <0>         0.0000
     72 H34        -1.1502    3.1115    4.0129 H         1 <0>         0.0000
@<TRIPOS>BOND
     1    1    4 ar
     2    1    3 ar
     3    1   39 1
     4    2    6 ar
     5    2    5 ar
     6    2   40 1
     7    3    7 ar
     8    3   41 1
     9    4    8 ar
    10    4   42 1
    11    5   15 ar
    12    5   43 1
    13    6   16 ar
    14    6   44 1
    15    7   19 ar
    16    7   45 1
    17    8   19 ar
    18    8   46 1
    19    9   12 ar
    20    9   18 ar
    21    9   47 1
    22   10   13 ar
    23   10   18 ar
    24   10   48 1
    25   11   14 ar
    26   11   20 ar
    27   11   49 1
    28   12   22 ar
    29   12   50 1
    30   13   22 ar
    31   13   51 1
    32   14   23 ar
    33   14   52 1
    34   15   24 ar
    35   15   53 1
    36   16   24 ar
    37   16   54 1
    38   17   21 ar
    39   17   23 ar
    40   17   55 1
    41   18   25 1
    42   19   26 1
    43   20   21 ar
    44   20   25 1
    45   21   27 1
    46   22   37 1
    47   23   36 1
    48   24   38 1
    49   25   26 2
    50   26   28 1
    51   27   29 1
    52   27   56 1
    53   27   57 1
    54   28   29 1
    55   28   58 1
    56   28   59 1
    57   29   60 1
    58   29   61 1
    59   30   31 1
    60   30   32 1
    61   30   62 1
    62   30   63 1
    63   31   33 1
    64   31   64 1
    65   31   65 1
    66   32   34 1
    67   32   66 1
    68   32   67 1
    69   33   37 1
    70   33   68 1
    71   33   69 1
    72   34   38 1
    73   34   70 1
    74   34   71 1
    75   35   38 2
    76   36   72 1
