@<TRIPOS>MOLECULE
*****
   60    63     0     0     0
SMALL
NO_CHARGES

@<TRIPOS>ATOM
      1 C1          5.2578    2.7755    1.1518 C.ar      1 <0>         0.0000
      2 C2          3.9241    2.8826    0.7778 C.ar      1 <0>         0.0000
      3 C3         -4.0380    4.4053   -5.7626 C.ar      1 <0>         0.0000
      4 C4          6.2681    3.4563    0.4548 C.ar      1 <0>         0.0000
      5 C5         -3.2159    3.8078   -4.8036 C.ar      1 <0>         0.0000
      6 C6          4.5756    4.3748   -1.0274 C.ar      1 <0>         0.0000
      7 C7         -4.3571    5.0034   -3.0173 C.ar      1 <0>         0.0000
      8 C8          3.5776    3.6912   -0.3241 C.ar      1 <0>         0.0000
      9 C9         -5.0249    5.3098   -5.3501 C.ar      1 <0>         0.0000
     10 C10        -5.1700    5.5983   -3.9887 C.ar      1 <0>         0.0000
     11 C11         5.9173    4.2580   -0.6394 C.ar      1 <0>         0.0000
     12 C12        -3.3716    4.1019   -3.4413 C.ar      1 <0>         0.0000
     13 C13         0.0359    3.6659   -0.9071 C.2       1 <0>         0.0000
     14 C14         0.4706    4.5003   -1.9049 C.2       1 <0>         0.0000
     15 C15         2.1758    3.8016   -0.7158 C.2       1 <0>         0.0000
     16 C16        -5.4023    5.2963   -8.5099 C.2       1 <0>         0.0000
     17 C17        -6.2964    6.5894   -3.7826 C.3       1 <0>         0.0000
     18 C18        -6.4646    7.2017   -5.1923 C.3       1 <0>         0.0000
     19 C19        -6.0429    6.0800   -6.1804 C.3       1 <0>         0.0000
     20 C20        -0.1244    5.2590   -3.0438 C.3       1 <0>         0.0000
     21 C21        -6.0979    8.0103   -9.5885 C.3       1 <0>         0.0000
     22 C22         8.1902    4.8782   -1.0545 C.3       1 <0>         0.0000
     23 C23        -1.3292    3.1678   -0.5234 C.3       1 <0>         0.0000
     24 C24        -6.5426    7.5426   -8.1969 C.3       1 <0>         0.0000
     25 C25        -2.5065    3.8372   -1.2153 C.3       1 <0>         0.0000
     26 C26        -5.5604    6.5433   -7.5657 C.3       1 <0>         0.0000
     27 N1          1.1367    3.2364   -0.1648 N.2       1 <0>         0.0000
     28 O1         -6.4777    4.6852   -8.7633 O.co2     1 <0>         0.0000
     29 O2         -4.2299    5.0337   -8.9038 O.co2     1 <0>         0.0000
     30 O3          1.8499    4.5883   -1.7814 O.3       1 <0>         0.0000
     31 O4          6.8139    4.9698   -1.3970 O.3       1 <0>         0.0000
     32 O5         -2.4845    3.4663   -2.5848 O.3       1 <0>         0.0000
     33 H1          5.5306    2.1525    2.0001 H         1 <0>         0.0000
     34 H2          3.1409    2.3568    1.3133 H         1 <0>         0.0000
     35 H3         -3.8972    4.1992   -6.8209 H         1 <0>         0.0000
     36 H4          7.3000    3.3522    0.7704 H         1 <0>         0.0000
     37 H5         -2.4345    3.1104   -5.0958 H         1 <0>         0.0000
     38 H6          4.3276    4.9994   -1.8790 H         1 <0>         0.0000
     39 H7         -4.4966    5.2446   -1.9677 H         1 <0>         0.0000
     40 H8         -7.2118    6.0600   -3.4789 H         1 <0>         0.0000
     41 H9         -6.0821    7.3340   -3.0060 H         1 <0>         0.0000
     42 H10        -7.4777    7.5715   -5.3762 H         1 <0>         0.0000
     43 H11        -5.7750    8.0493   -5.3001 H         1 <0>         0.0000
     44 H12        -6.9048    5.4218   -6.3651 H         1 <0>         0.0000
     45 H13         0.5570    6.0600   -3.3430 H         1 <0>         0.0000
     46 H14        -0.3014    4.6119   -3.9080 H         1 <0>         0.0000
     47 H15        -1.0847    5.7028   -2.7812 H         1 <0>         0.0000
     48 H16        -6.0206    7.1593  -10.2711 H         1 <0>         0.0000
     49 H17        -6.8102    8.7304  -10.0133 H         1 <0>         0.0000
     50 H18        -5.1129    8.4919   -9.5468 H         1 <0>         0.0000
     51 H19         8.7198    5.5052   -1.7735 H         1 <0>         0.0000
     52 H20         8.5569    3.8467   -1.1344 H         1 <0>         0.0000
     53 H21         8.3784    5.2526   -0.0399 H         1 <0>         0.0000
     54 H22        -1.3780    2.0882   -0.7093 H         1 <0>         0.0000
     55 H23        -1.4421    3.2985    0.5596 H         1 <0>         0.0000
     56 H24        -6.6670    8.4209   -7.5470 H         1 <0>         0.0000
     57 H25        -7.5200    7.0519   -8.2767 H         1 <0>         0.0000
     58 H26        -3.4462    3.5090   -0.7481 H         1 <0>         0.0000
     59 H27        -2.4469    4.9294   -1.1069 H         1 <0>         0.0000
     60 H28        -4.5774    7.0219   -7.4576 H         1 <0>         0.0000
@<TRIPOS>BOND
     1    1    2 ar
     2    1    4 ar
     3    1   33 1
     4    2    8 ar
     5    2   34 1
     6    3    5 ar
     7    3    9 ar
     8    3   35 1
     9    4   11 ar
    10    4   36 1
    11    5   12 ar
    12    5   37 1
    13    6    8 ar
    14    6   11 ar
    15    6   38 1
    16    7   10 ar
    17    7   12 ar
    18    7   39 1
    19    8   15 1
    20    9   10 ar
    21    9   19 1
    22   10   17 1
    23   11   31 1
    24   12   32 1
    25   13   14 2
    26   13   23 1
    27   13   27 1
    28   14   20 1
    29   14   30 1
    30   15   27 2
    31   15   30 1
    32   16   26 1
    33   16   28 1
    34   16   29 2
    35   17   18 1
    36   17   40 1
    37   17   41 1
    38   18   19 1
    39   18   42 1
    40   18   43 1
    41   19   26 1
    42   19   44 1
    43   20   45 1
    44   20   46 1
    45   20   47 1
    46   21   24 1
    47   21   48 1
    48   21   49 1
    49   21   50 1
    50   22   31 1
    51   22   51 1
    52   22   52 1
    53   22   53 1
    54   23   25 1
    55   23   54 1
    56   23   55 1
    57   24   26 1
    58   24   56 1
    59   24   57 1
    60   25   32 1
    61   25   58 1
    62   25   59 1
    63   26   60 1
