@<TRIPOS>MOLECULE
*****
   69    73     0     0     0
SMALL
NO_CHARGES

@<TRIPOS>ATOM
      1 C1          1.7991   -7.6666   -5.0494 C.ar      1 <0>         0.0000
      2 C2          3.1682   -7.4679   -7.0153 C.ar      1 <0>         0.0000
      3 C3          3.0324  -10.7041    1.7519 C.ar      1 <0>         0.0000
      4 C4          1.8435  -10.7209    1.0413 C.ar      1 <0>         0.0000
      5 C5          2.4077   -6.5320   -4.4989 C.ar      1 <0>         0.0000
      6 C6          3.7875   -6.3464   -6.4823 C.ar      1 <0>         0.0000
      7 C7          4.0745  -12.1543    0.1291 C.ar      1 <0>         0.0000
      8 C8          2.8762  -12.1780   -0.6007 C.ar      1 <0>         0.0000
      9 C9          2.1657   -8.1539   -6.3065 C.ar      1 <0>         0.0000
     10 C10         4.1723  -11.4160    1.3035 C.ar      1 <0>         0.0000
     11 C11         1.7567  -11.4574   -0.1592 C.ar      1 <0>         0.0000
     12 C12         3.4114   -5.8733   -5.2141 C.ar      1 <0>         0.0000
     13 C13         2.7514  -12.9452   -1.8356 C.2       1 <0>         0.0000
     14 C14         1.5292   -9.3489   -6.9576 C.2       1 <0>         0.0000
     15 C15         2.6568  -10.7132   -4.7012 C.2       1 <0>         0.0000
     16 C16         5.2392   -0.3310   -2.2680 C.3       1 <0>         0.0000
     17 C17         5.4970   -1.5144   -1.3239 C.3       1 <0>         0.0000
     18 C18         5.3782   -0.7527   -3.7379 C.3       1 <0>         0.0000
     19 C19         0.0202  -11.4167   -6.9439 C.3       1 <0>         0.0000
     20 C20         4.5947   -2.7107   -1.6596 C.3       1 <0>         0.0000
     21 C21         4.4747   -1.9489   -4.0678 C.3       1 <0>         0.0000
     22 C22         0.5990  -12.6465   -6.2313 C.3       1 <0>         0.0000
     23 C23         0.5469  -10.2009   -6.1394 C.3       1 <0>         0.0000
     24 C24         1.1010  -10.7567   -4.7898 C.3       1 <0>         0.0000
     25 C25         4.7381   -3.1375   -3.1297 C.3       1 <0>         0.0000
     26 C26         0.5872  -12.2240   -4.7555 C.3       1 <0>         0.0000
     27 C27         5.4656  -11.3425    2.0815 C.3       1 <0>         0.0000
     28 C28         1.3780  -13.1899   -3.8761 C.3       1 <0>         0.0000
     29 C29         3.8237   -4.3187   -3.4338 C.3       1 <0>         0.0000
     30 N1          0.5528  -11.4414   -0.8576 N.2       1 <0>         0.0000
     31 N2          0.4750  -12.0418   -1.9831 N.2       1 <0>         0.0000
     32 N3          1.5234  -12.7280   -2.4826 N.am      1 <0>         0.0000
     33 O1          3.2607  -10.7693   -5.8111 O.co2     1 <0>         0.0000
     34 O2          3.5809  -13.7389   -2.2709 O.2       1 <0>         0.0000
     35 O3          1.6470   -9.4996   -8.1738 O.2       1 <0>         0.0000
     36 O4          3.1410  -10.6600   -3.5392 O.co2     1 <0>         0.0000
     37 O5          4.0880   -4.7619   -4.7616 O.3       1 <0>         0.0000
     38 H1          1.0394   -8.1714   -4.4644 H         1 <0>         0.0000
     39 H2          3.4570   -7.8530   -7.9879 H         1 <0>         0.0000
     40 H3          3.0981  -10.1281    2.6737 H         1 <0>         0.0000
     41 H4          0.9688  -10.1711    1.3774 H         1 <0>         0.0000
     42 H5          2.1043   -6.1970   -3.5135 H         1 <0>         0.0000
     43 H6          4.5775   -5.8264   -7.0183 H         1 <0>         0.0000
     44 H7          4.9195  -12.7146   -0.2607 H         1 <0>         0.0000
     45 H8          5.9260    0.4936   -2.0392 H         1 <0>         0.0000
     46 H9          4.2220    0.0498   -2.0976 H         1 <0>         0.0000
     47 H10         6.5482   -1.8225   -1.4114 H         1 <0>         0.0000
     48 H11         5.3456   -1.2097   -0.2810 H         1 <0>         0.0000
     49 H12         5.1435    0.0908   -4.3988 H         1 <0>         0.0000
     50 H13         6.4241   -1.0249   -3.9375 H         1 <0>         0.0000
     51 H14         0.3186  -11.3486   -7.9915 H         1 <0>         0.0000
     52 H15        -1.0762  -11.4458   -6.9039 H         1 <0>         0.0000
     53 H16         4.8272   -3.5549   -0.9988 H         1 <0>         0.0000
     54 H17         3.5472   -2.4383   -1.4640 H         1 <0>         0.0000
     55 H18         3.4215   -1.6468   -3.9672 H         1 <0>         0.0000
     56 H19         4.6134   -2.2643   -5.1061 H         1 <0>         0.0000
     57 H20         0.0238  -13.5622   -6.4187 H         1 <0>         0.0000
     58 H21         1.6319  -12.8075   -6.5563 H         1 <0>         0.0000
     59 H22        -0.2899   -9.5212   -5.9222 H         1 <0>         0.0000
     60 H23         0.6972  -10.2185   -3.9295 H         1 <0>         0.0000
     61 H24         5.7711   -3.4777   -3.2894 H         1 <0>         0.0000
     62 H25        -0.4532  -12.2091   -4.4091 H         1 <0>         0.0000
     63 H26         5.3006  -11.5183    3.1508 H         1 <0>         0.0000
     64 H27         6.1873  -12.0814    1.7228 H         1 <0>         0.0000
     65 H28         5.9268  -10.3523    1.9811 H         1 <0>         0.0000
     66 H29         2.3955  -13.3071   -4.2484 H         1 <0>         0.0000
     67 H30         0.9062  -14.1804   -3.8737 H         1 <0>         0.0000
     68 H31         2.7698   -4.0159   -3.3382 H         1 <0>         0.0000
     69 H32         4.0068   -5.1374   -2.7242 H         1 <0>         0.0000
@<TRIPOS>BOND
     1    1    5 ar
     2    1    9 ar
     3    1   38 1
     4    2    6 ar
     5    2    9 ar
     6    2   39 1
     7    3    4 ar
     8    3   10 ar
     9    3   40 1
    10    4   11 ar
    11    4   41 1
    12    5   12 ar
    13    5   42 1
    14    6   12 ar
    15    6   43 1
    16    7    8 ar
    17    7   10 ar
    18    7   44 1
    19    8   11 ar
    20    8   13 1
    21    9   14 1
    22   10   27 1
    23   11   30 1
    24   12   37 1
    25   13   32 am
    26   13   34 2
    27   14   23 1
    28   14   35 2
    29   15   24 1
    30   15   33 1
    31   15   36 2
    32   16   18 1
    33   16   17 1
    34   16   45 1
    35   16   46 1
    36   17   20 1
    37   17   47 1
    38   17   48 1
    39   18   21 1
    40   18   49 1
    41   18   50 1
    42   19   22 1
    43   19   23 1
    44   19   51 1
    45   19   52 1
    46   20   25 1
    47   20   53 1
    48   20   54 1
    49   21   25 1
    50   21   55 1
    51   21   56 1
    52   22   26 1
    53   22   57 1
    54   22   58 1
    55   23   24 1
    56   23   59 1
    57   24   26 1
    58   24   60 1
    59   25   29 1
    60   25   61 1
    61   26   28 1
    62   26   62 1
    63   27   63 1
    64   27   64 1
    65   27   65 1
    66   28   32 1
    67   28   66 1
    68   28   67 1
    69   29   37 1
    70   29   68 1
    71   29   69 1
    72   30   31 2
    73   31   32 1
