@<TRIPOS>MOLECULE
*****
   71    75     0     0     0
SMALL
NO_CHARGES

@<TRIPOS>ATOM
      1 C1          3.2828   -0.4221   -4.5149 C.ar      1 <0>         0.0000
      2 C2          3.6971   -0.9930   -3.3059 C.ar      1 <0>         0.0000
      3 C3          2.0692    0.2714   -4.5660 C.ar      1 <0>         0.0000
      4 C4          5.4595  -16.6368    0.4148 C.ar      1 <0>         0.0000
      5 C5          4.4351  -17.5498    0.6786 C.ar      1 <0>         0.0000
      6 C6          2.9018   -0.8792   -2.1655 C.ar      1 <0>         0.0000
      7 C7          1.2797    0.3923   -3.4196 C.ar      1 <0>         0.0000
      8 C8          1.3187   -3.4228    0.3991 C.ar      1 <0>         0.0000
      9 C9          0.4942   -3.0339   -1.8244 C.ar      1 <0>         0.0000
     10 C10        -1.2215   -1.6789    1.5327 C.ar      1 <0>         0.0000
     11 C11         1.5867   -4.7586    0.0811 C.ar      1 <0>         0.0000
     12 C12         0.7451   -4.3592   -2.1551 C.ar      1 <0>         0.0000
     13 C13        -1.8749   -1.4767    2.7477 C.ar      1 <0>         0.0000
     14 C14         5.1392  -15.4372   -0.2191 C.ar      1 <0>         0.0000
     15 C15        -0.3373    0.3302    3.2376 C.ar      1 <0>         0.0000
     16 C16         3.1356  -17.2136    0.2901 C.ar      1 <0>         0.0000
     17 C17         0.7871   -2.5305   -0.5419 C.ar      1 <0>         0.0000
     18 C18         1.6744   -0.1918   -2.2026 C.ar      1 <0>         0.0000
     19 C19        -0.1383   -0.8798    1.1355 C.ar      1 <0>         0.0000
     20 C20         0.3149    0.1327    2.0182 C.ar      1 <0>         0.0000
     21 C21         1.3013   -5.2325   -1.2063 C.ar      1 <0>         0.0000
     22 C22        -1.4306   -0.4617    3.6032 C.ar      1 <0>         0.0000
     23 C23         3.8021  -15.1891   -0.5673 C.ar      1 <0>         0.0000
     24 C24         0.5230   -1.1135   -0.1767 C.2       1 <0>         0.0000
     25 C25         0.8387   -0.0610   -0.9817 C.2       1 <0>         0.0000
     26 C26         1.5162    0.9742    1.6525 C.3       1 <0>         0.0000
     27 C27         0.3789    1.3358   -0.6039 C.3       1 <0>         0.0000
     28 C28         1.2402    1.9698    0.5070 C.3       1 <0>         0.0000
     29 C29         3.3995  -13.9019   -1.2312 C.3       1 <0>         0.0000
     30 C30         2.2247   -8.7814   -1.4241 C.3       1 <0>         0.0000
     31 C31         2.8445   -9.8533   -0.5192 C.3       1 <0>         0.0000
     32 C32         2.0852   -7.4467   -0.7057 C.3       1 <0>         0.0000
     33 C33         2.9667  -11.1956   -1.2368 C.3       1 <0>         0.0000
     34 N1          2.8148  -16.0634   -0.3177 N.ar      1 <0>         0.0000
     35 O1          2.6040  -12.5965    1.0357 O.2       1 <0>         0.0000
     36 O2         -2.0212   -0.2050    4.8185 O.3       1 <0>         0.0000
     37 O3          1.5159   -6.5179   -1.6294 O.3       1 <0>         0.0000
     38 S1          3.6340  -12.4628   -0.0698 S.o       1 <0>         0.0000
     39 H1          3.9000   -0.5134   -5.4050 H         1 <0>         0.0000
     40 H2          4.6425   -1.5272   -3.2518 H         1 <0>         0.0000
     41 H3          1.7355    0.7175   -5.4998 H         1 <0>         0.0000
     42 H4          6.4859  -16.8549    0.6982 H         1 <0>         0.0000
     43 H5          4.6328  -18.4973    1.1715 H         1 <0>         0.0000
     44 H6          3.2263   -1.3295   -1.2323 H         1 <0>         0.0000
     45 H7          0.3326    0.9230   -3.4778 H         1 <0>         0.0000
     46 H8          1.5350   -3.0684    1.4034 H         1 <0>         0.0000
     47 H9          0.0635   -2.3730   -2.5699 H         1 <0>         0.0000
     48 H10        -1.5612   -2.4723    0.8730 H         1 <0>         0.0000
     49 H11         2.0075   -5.4091    0.8395 H         1 <0>         0.0000
     50 H12         0.5144   -4.7440   -3.1443 H         1 <0>         0.0000
     51 H13        -2.7200   -2.1041    3.0277 H         1 <0>         0.0000
     52 H14         5.9071  -14.6991   -0.4364 H         1 <0>         0.0000
     53 H15         0.0023    1.0975    3.9284 H         1 <0>         0.0000
     54 H16         2.3103  -17.8991    0.4763 H         1 <0>         0.0000
     55 H17         1.8788    1.5134    2.5331 H         1 <0>         0.0000
     56 H18         2.3220    0.3034    1.3339 H         1 <0>         0.0000
     57 H19         0.3935    1.9907   -1.4793 H         1 <0>         0.0000
     58 H20        -0.6570    1.2893   -0.2517 H         1 <0>         0.0000
     59 H21         0.7165    2.8538    0.8905 H         1 <0>         0.0000
     60 H22         2.1983    2.3132    0.0996 H         1 <0>         0.0000
     61 H23         4.0130  -13.6852   -2.1123 H         1 <0>         0.0000
     62 H24         2.3414  -13.9396   -1.4987 H         1 <0>         0.0000
     63 H25         2.8375   -8.6357   -2.3213 H         1 <0>         0.0000
     64 H26         1.2333   -9.1030   -1.7631 H         1 <0>         0.0000
     65 H27         2.2300   -9.9934    0.3766 H         1 <0>         0.0000
     66 H28         3.8354   -9.5260   -0.1790 H         1 <0>         0.0000
     67 H29         3.0656   -7.0840   -0.3668 H         1 <0>         0.0000
     68 H30         1.4358   -7.5481    0.1746 H         1 <0>         0.0000
     69 H31         1.9873  -11.5533   -1.5718 H         1 <0>         0.0000
     70 H32         3.6470  -11.1411   -2.0944 H         1 <0>         0.0000
     71 H33        -2.7581   -0.8231    4.9463 H         1 <0>         0.0000
@<TRIPOS>BOND
     1    1    3 ar
     2    1    2 ar
     3    1   39 1
     4    2    6 ar
     5    2   40 1
     6    3    7 ar
     7    3   41 1
     8    4    5 ar
     9    4   14 ar
    10    4   42 1
    11    5   16 ar
    12    5   43 1
    13    6   18 ar
    14    6   44 1
    15    7   18 ar
    16    7   45 1
    17    8   11 ar
    18    8   17 ar
    19    8   46 1
    20    9   12 ar
    21    9   17 ar
    22    9   47 1
    23   10   13 ar
    24   10   19 ar
    25   10   48 1
    26   11   21 ar
    27   11   49 1
    28   12   21 ar
    29   12   50 1
    30   13   22 ar
    31   13   51 1
    32   14   23 ar
    33   14   52 1
    34   15   20 ar
    35   15   22 ar
    36   15   53 1
    37   16   34 ar
    38   16   54 1
    39   17   24 1
    40   18   25 1
    41   19   20 ar
    42   19   24 1
    43   20   26 1
    44   21   37 1
    45   22   36 1
    46   23   29 1
    47   23   34 ar
    48   24   25 2
    49   25   27 1
    50   26   28 1
    51   26   55 1
    52   26   56 1
    53   27   28 1
    54   27   57 1
    55   27   58 1
    56   28   59 1
    57   28   60 1
    58   29   38 1
    59   29   61 1
    60   29   62 1
    61   30   31 1
    62   30   32 1
    63   30   63 1
    64   30   64 1
    65   31   33 1
    66   31   65 1
    67   31   66 1
    68   32   37 1
    69   32   67 1
    70   32   68 1
    71   33   38 1
    72   33   69 1
    73   33   70 1
    74   35   38 2
    75   36   71 1
