@<TRIPOS>MOLECULE
*****
   39    41     0     0     0
SMALL
NO_CHARGES

@<TRIPOS>ATOM
      1 C1          2.4843   -5.1438   -1.2904 C.ar      1 <0>         0.0000
      2 C2          1.9155   -3.9379   -0.8530 C.ar      1 <0>         0.0000
      3 C3          1.9424   -6.3748   -0.9053 C.ar      1 <0>         0.0000
      4 C4          0.7897   -3.9341   -0.0192 C.ar      1 <0>         0.0000
      5 C5         -4.6041   -9.6233    1.7452 C.2       1 <0>         0.0000
      6 C6          0.8193   -6.3754   -0.0801 C.ar      1 <0>         0.0000
      7 C7         -4.1574   -9.0333    0.5099 C.2       1 <0>         0.0000
      8 C8          0.2661   -5.1686    0.3392 C.ar      1 <0>         0.0000
      9 C9         -5.8016  -10.2523    1.5058 C.2       1 <0>         0.0000
     10 C10        -5.1245   -9.3276   -0.4589 C.2       1 <0>         0.0000
     11 C11         0.0966   -7.5785    0.4235 C.2       1 <0>         0.0000
     12 C12        -2.9383   -8.2633    0.2981 C.2       1 <0>         0.0000
     13 C13        -6.6928  -11.0187    2.4305 C.3       1 <0>         0.0000
     14 C14        -5.1931   -8.9498   -1.9035 C.3       1 <0>         0.0000
     15 C15        -7.3300  -10.5189   -0.4866 C.3       1 <0>         0.0000
     16 C16        -2.0614   -8.0452    1.5525 C.3       1 <0>         0.0000
     17 N1         -6.1038  -10.0691    0.1544 N.pl3     1 <0>         0.0000
     18 N2         -0.9366   -7.1742    1.2719 N.am      1 <0>         0.0000
     19 O1          0.3631   -8.7424    0.1781 O.2       1 <0>         0.0000
     20 O2         -2.5674   -7.8076   -0.7802 O.2       1 <0>         0.0000
     21 O3         -0.8500   -5.0520    2.7739 O.2       1 <0>         0.0000
     22 O4         -2.4081   -5.0617    0.7978 O.2       1 <0>         0.0000
     23 S1         -1.1395   -5.4647    1.4005 S.o2      1 <0>         0.0000
     24 H1          3.3572   -5.1180   -1.9366 H         1 <0>         0.0000
     25 H2          2.3519   -2.9931   -1.1643 H         1 <0>         0.0000
     26 H3          2.3680   -7.3185   -1.2327 H         1 <0>         0.0000
     27 H4          0.3447   -3.0060    0.3262 H         1 <0>         0.0000
     28 H5         -4.1014   -9.6005    2.7033 H         1 <0>         0.0000
     29 H6         -7.7017  -10.5923    2.4850 H         1 <0>         0.0000
     30 H7         -6.7930  -12.0712    2.1370 H         1 <0>         0.0000
     31 H8         -6.2700  -10.9977    3.4376 H         1 <0>         0.0000
     32 H9         -5.1330   -9.8323   -2.5534 H         1 <0>         0.0000
     33 H10        -6.1280   -8.4272   -2.1386 H         1 <0>         0.0000
     34 H11        -4.3551   -8.2965   -2.1409 H         1 <0>         0.0000
     35 H12        -8.1221   -9.7659   -0.4023 H         1 <0>         0.0000
     36 H13        -7.1462  -10.7172   -1.5432 H         1 <0>         0.0000
     37 H14        -7.6742  -11.4429   -0.0199 H         1 <0>         0.0000
     38 H15        -1.6655   -9.0072    1.8899 H         1 <0>         0.0000
     39 H16        -2.6482   -7.6211    2.3706 H         1 <0>         0.0000
@<TRIPOS>BOND
     1    1    2 ar
     2    1    3 ar
     3    1   24 1
     4    2    4 ar
     5    2   25 1
     6    3    6 ar
     7    3   26 1
     8    4    8 ar
     9    4   27 1
    10    5    7 1
    11    5    9 2
    12    5   28 1
    13    6    8 ar
    14    6   11 1
    15    7   10 2
    16    7   12 1
    17    8   23 1
    18    9   13 1
    19    9   17 1
    20   10   14 1
    21   10   17 1
    22   11   18 am
    23   11   19 2
    24   12   16 1
    25   12   20 2
    26   13   29 1
    27   13   30 1
    28   13   31 1
    29   14   32 1
    30   14   33 1
    31   14   34 1
    32   15   17 1
    33   15   35 1
    34   15   36 1
    35   15   37 1
    36   16   18 1
    37   16   38 1
    38   16   39 1
    39   18   23 1
    40   21   23 2
    41   22   23 2
