@<TRIPOS>MOLECULE
*****
   39    41     0     0     0
SMALL
NO_CHARGES

@<TRIPOS>ATOM
      1 C1         -2.7714   -0.0962    0.4098 C.ar      1 <0>         0.0000
      2 C2         -3.4845    0.0622    1.6078 C.ar      1 <0>         0.0000
      3 C3         -2.2818   -1.3491    0.0258 C.ar      1 <0>         0.0000
      4 C4         -3.7257   -1.0298    2.4515 C.ar      1 <0>         0.0000
      5 C5         -5.3847   -8.2483   -0.1718 C.2       1 <0>         0.0000
      6 C6         -2.5242   -2.4393    0.8594 C.ar      1 <0>         0.0000
      7 C7         -4.2398   -7.8382    0.5895 C.2       1 <0>         0.0000
      8 C8         -3.2387   -2.2631    2.0414 C.ar      1 <0>         0.0000
      9 C9         -5.5360   -9.6028   -0.0196 C.2       1 <0>         0.0000
     10 C10        -3.7094   -8.9876    1.1927 C.2       1 <0>         0.0000
     11 C11        -2.0950   -3.8461    0.6165 C.2       1 <0>         0.0000
     12 C12        -3.8247   -6.4401    0.6799 C.2       1 <0>         0.0000
     13 C13        -6.5684  -10.5216   -0.5931 C.3       1 <0>         0.0000
     14 C14        -2.5304   -9.1937    2.0977 C.3       1 <0>         0.0000
     15 C15        -4.3051  -11.4283    1.2265 C.3       1 <0>         0.0000
     16 C16        -2.6172   -6.0746    1.5734 C.3       1 <0>         0.0000
     17 N1         -4.5079  -10.0452    0.8194 N.pl3     1 <0>         0.0000
     18 N2         -2.4711   -4.6376    1.7053 N.am      1 <0>         0.0000
     19 O1         -1.4798   -4.2628   -0.3496 O.2       1 <0>         0.0000
     20 O2         -4.3966   -5.5469    0.0648 O.2       1 <0>         0.0000
     21 O3         -2.5883   -3.7752    4.1561 O.2       1 <0>         0.0000
     22 O4         -4.7387   -4.3296    2.9735 O.2       1 <0>         0.0000
     23 S1         -3.3740   -3.8107    2.9222 S.o2      1 <0>         0.0000
     24 H1         -2.5989    0.7676   -0.2261 H         1 <0>         0.0000
     25 H2         -3.8565    1.0440    1.8867 H         1 <0>         0.0000
     26 H3         -1.7279   -1.4923   -0.8970 H         1 <0>         0.0000
     27 H4         -4.2742   -0.9159    3.3815 H         1 <0>         0.0000
     28 H5         -6.0139   -7.5868   -0.7509 H         1 <0>         0.0000
     29 H6         -6.1301  -11.3053   -1.2230 H         1 <0>         0.0000
     30 H7         -7.1701  -11.0125    0.1819 H         1 <0>         0.0000
     31 H8         -7.2504   -9.9406   -1.2177 H         1 <0>         0.0000
     32 H9         -2.7612   -8.9306    3.1378 H         1 <0>         0.0000
     33 H10        -2.1986  -10.2343    2.0923 H         1 <0>         0.0000
     34 H11        -1.6771   -8.5894    1.7864 H         1 <0>         0.0000
     35 H12        -3.3949  -11.8453    0.7825 H         1 <0>         0.0000
     36 H13        -4.2393  -11.5089    2.3150 H         1 <0>         0.0000
     37 H14        -5.1513  -12.0278    0.8940 H         1 <0>         0.0000
     38 H15        -1.6989   -6.4551    1.1177 H         1 <0>         0.0000
     39 H16        -2.7064   -6.5140    2.5686 H         1 <0>         0.0000
@<TRIPOS>BOND
     1    1    2 ar
     2    1    3 ar
     3    1   24 1
     4    2    4 ar
     5    2   25 1
     6    3    6 ar
     7    3   26 1
     8    4    8 ar
     9    4   27 1
    10    5    7 1
    11    5    9 2
    12    5   28 1
    13    6    8 ar
    14    6   11 1
    15    7   10 2
    16    7   12 1
    17    8   23 1
    18    9   13 1
    19    9   17 1
    20   10   14 1
    21   10   17 1
    22   11   18 am
    23   11   19 2
    24   12   16 1
    25   12   20 2
    26   13   29 1
    27   13   30 1
    28   13   31 1
    29   14   32 1
    30   14   33 1
    31   14   34 1
    32   15   17 1
    33   15   35 1
    34   15   36 1
    35   15   37 1
    36   16   18 1
    37   16   38 1
    38   16   39 1
    39   18   23 1
    40   21   23 2
    41   22   23 2
