@<TRIPOS>MOLECULE
*****
   20    21     0     0     0
SMALL
NO_CHARGES

@<TRIPOS>ATOM
      1 C1          1.8552   -1.4584   -0.1110 C.ar      1 <0>         0.0000
      2 C2          1.8697   -0.7214    2.5961 C.ar      1 <0>         0.0000
      3 C3         -1.1825    3.5114   -1.1299 C.2       1 <0>         0.0000
      4 C4         -0.0090    3.9980   -0.6000 C.2       1 <0>         0.0000
      5 C5          0.9584   -0.4742    0.3383 C.ar      1 <0>         0.0000
      6 C6          2.7585   -2.0357    0.7640 C.ar      1 <0>         0.0000
      7 C7          0.9804   -0.1413    1.6960 C.ar      1 <0>         0.0000
      8 C8          2.7668   -1.6653    2.1131 C.ar      1 <0>         0.0000
      9 C9         -0.2296    1.5739   -0.6695 C.2       1 <0>         0.0000
     10 C10        -0.0133    0.0982   -0.6556 C.2       1 <0>         0.0000
     11 N1         -1.2913    2.1500   -1.1755 N.2       1 <0>         0.0000
     12 O1         -0.5553   -0.6250   -1.4764 O.2       1 <0>         0.0000
     13 F1          3.6362   -2.9623    0.3335 F         1 <0>         0.0000
     14 F2          0.0824    0.7434    2.1862 F         1 <0>         0.0000
     15 F3          3.6469   -2.2408    2.9480 F         1 <0>         0.0000
     16 S1          1.0053    2.6966   -0.1126 S.3       1 <0>         0.0000
     17 H1          1.8395   -1.7657   -1.1518 H         1 <0>         0.0000
     18 H2          1.8559   -0.4548    3.6474 H         1 <0>         0.0000
     19 H3         -1.9950    4.1260   -1.5025 H         1 <0>         0.0000
     20 H4          0.2993    5.0292   -0.4840 H         1 <0>         0.0000
@<TRIPOS>BOND
     1    1    5 ar
     2    1    6 ar
     3    1   17 1
     4    2    7 ar
     5    2    8 ar
     6    2   18 1
     7    3    4 2
     8    3   11 1
     9    3   19 1
    10    4   16 1
    11    4   20 1
    12    5    7 ar
    13    5   10 1
    14    6    8 ar
    15    6   13 1
    16    7   14 1
    17    8   15 1
    18    9   10 1
    19    9   11 2
    20    9   16 1
    21   10   12 2
