@<TRIPOS>MOLECULE
*****
   23    24     0     0     0
SMALL
NO_CHARGES

@<TRIPOS>ATOM
      1 C1         -2.3065    1.7134   -1.7520 C.2       1 <0>         0.0000
      2 C2         -2.3420    0.3654   -1.2966 C.2       1 <0>         0.0000
      3 C3         -3.5065    2.3657   -1.5852 C.2       1 <0>         0.0000
      4 C4         -3.5731    0.0008   -0.7849 C.2       1 <0>         0.0000
      5 C5         -4.7522   -3.8085    0.9275 C.2       1 <0>         0.0000
      6 C6         -6.1879   -5.1072    1.9536 C.2       1 <0>         0.0000
      7 C7         -4.0125   -1.2682   -0.2278 C.2       1 <0>         0.0000
      8 N1         -5.8750   -3.1325    1.0629 N.2       1 <0>         0.0000
      9 N2         -6.7888   -3.9733    1.7232 N.2       1 <0>         0.0000
     10 N3         -3.1686   -2.2489   -0.1637 N.2       1 <0>         0.0000
     11 N4         -4.8877   -5.0757    1.4731 N.pl3     1 <0>         0.0000
     12 N5         -3.8714   -6.0354    1.5073 N.3       1 <0>         0.0000
     13 N6         -3.5626   -3.4513    0.3498 N.pl3     1 <0>         0.0000
     14 S1         -4.6967    1.3368   -0.8677 S.3       1 <0>         0.0000
     15 S2         -6.8198   -6.5471    2.7483 S.3       1 <0>         0.0000
     16 H1         -1.4311    2.1856   -2.1864 H         1 <0>         0.0000
     17 H2         -1.5064   -0.3243   -1.3356 H         1 <0>         0.0000
     18 H3         -3.7560    3.3872   -1.8422 H         1 <0>         0.0000
     19 H4         -5.0410   -1.3554    0.1209 H         1 <0>         0.0000
     20 H5         -4.1668   -6.8679    0.9981 H         1 <0>         0.0000
     21 H6         -3.6670   -6.2854    2.4745 H         1 <0>         0.0000
     22 H7         -2.8224   -4.1395    0.4004 H         1 <0>         0.0000
     23 H8         -8.0212   -5.9823    2.9790 H         1 <0>         0.0000
@<TRIPOS>BOND
     1    1    2 1
     2    1    3 2
     3    1   16 1
     4    2    4 2
     5    2   17 1
     6    3   14 1
     7    3   18 1
     8    4    7 1
     9    4   14 1
    10    5    8 2
    11    5   11 1
    12    5   13 1
    13    6    9 2
    14    6   11 1
    15    6   15 1
    16    7   10 2
    17    7   19 1
    18    8    9 1
    19   10   13 1
    20   11   12 1
    21   12   20 1
    22   12   21 1
    23   13   22 1
    24   15   23 1
