@<TRIPOS>MOLECULE
*****
   25    26     0     0     0
SMALL
NO_CHARGES

@<TRIPOS>ATOM
      1 C1          6.8234   -0.4373    2.3647 C.ar      1 <0>         0.0000
      2 C2          6.6110    0.1062    3.6343 C.ar      1 <0>         0.0000
      3 C3          5.8346   -0.2748    1.3953 C.ar      1 <0>         0.0000
      4 C4          1.2620    0.1249    3.2831 C.ar      1 <0>         0.0000
      5 C5          0.9045   -0.9559    1.1702 C.ar      1 <0>         0.0000
      6 C6          5.4150    0.7914    3.8790 C.ar      1 <0>         0.0000
      7 C7          0.5278   -0.9012    3.8744 C.ar      1 <0>         0.0000
      8 C8          1.4522    0.1081    1.8947 C.ar      1 <0>         0.0000
      9 C9          4.6698    0.4230    1.7403 C.ar      1 <0>         0.0000
     10 C10         0.1963   -1.9298    1.8803 C.ar      1 <0>         0.0000
     11 C11         3.5836    0.5967    0.7135 C.2       1 <0>         0.0000
     12 C12         2.2540    1.1801    1.1830 C.3       1 <0>         0.0000
     13 N1          4.4580    0.9500    2.9590 N.ar      1 <0>         0.0000
     14 N2         -0.0035   -1.9258    3.1848 N.ar      1 <0>         0.0000
     15 O1          3.7525    0.2417   -0.4442 O.2       1 <0>         0.0000
     16 Br1        -0.5533   -3.4100    0.8942 Br        1 <0>         0.0000
     17 H1          7.7391   -0.9768    2.1377 H         1 <0>         0.0000
     18 H2          7.3512    0.0049    4.4228 H         1 <0>         0.0000
     19 H3          5.9348   -0.6717    0.3905 H         1 <0>         0.0000
     20 H4          1.6903    0.9165    3.8889 H         1 <0>         0.0000
     21 H5          1.0297   -1.0288    0.0950 H         1 <0>         0.0000
     22 H6          5.2212    1.2284    4.8571 H         1 <0>         0.0000
     23 H7          0.3551   -0.9130    4.9489 H         1 <0>         0.0000
     24 H8          1.7241    1.5222    0.2914 H         1 <0>         0.0000
     25 H9          2.4303    2.0194    1.8570 H         1 <0>         0.0000
@<TRIPOS>BOND
     1    1    2 ar
     2    1    3 ar
     3    1   17 1
     4    2    6 ar
     5    2   18 1
     6    3    9 ar
     7    3   19 1
     8    4    7 ar
     9    4    8 ar
    10    4   20 1
    11    5    8 ar
    12    5   10 ar
    13    5   21 1
    14    6   13 ar
    15    6   22 1
    16    7   14 ar
    17    7   23 1
    18    8   12 1
    19    9   11 1
    20    9   13 ar
    21   10   14 ar
    22   10   16 1
    23   11   12 1
    24   11   15 2
    25   12   24 1
    26   12   25 1
