@<TRIPOS>MOLECULE
*****
   34    37     0     0     0
SMALL
NO_CHARGES

@<TRIPOS>ATOM
      1 C1          5.5673   -1.2727    3.1432 C.ar      1 <0>         0.0000
      2 C2          4.3390   -1.2585    2.4561 C.ar      1 <0>         0.0000
      3 C3          6.1505   -0.0930    3.6018 C.ar      1 <0>         0.0000
      4 C4          3.8251    2.5270    2.5829 C.2       1 <0>         0.0000
      5 C5          4.8053    3.2551    3.2144 C.2       1 <0>         0.0000
      6 C6          4.2213    1.1465    2.6526 C.ar      1 <0>         0.0000
      7 C7          3.6440   -0.0680    2.2019 C.ar      1 <0>         0.0000
      8 C8          5.4664    1.1004    3.3469 C.ar      1 <0>         0.0000
      9 C9          0.5438    0.5510    0.4822 C.2       1 <0>         0.0000
     10 C10         0.4907   -0.8388    0.5345 C.2       1 <0>         0.0000
     11 C11         2.3618   -0.0613    1.5006 C.2       1 <0>         0.0000
     12 C12        -0.4113    1.5568   -0.0581 C.2       1 <0>         0.0000
     13 C13        -0.4696   -1.8840    0.0532 C.3       1 <0>         0.0000
     14 C14        -1.8089   -1.3293   -0.4386 C.3       1 <0>         0.0000
     15 C15        -1.6484   -0.1919   -1.4570 C.3       1 <0>         0.0000
     16 N1          1.7023    1.0033    1.0857 N.2       1 <0>         0.0000
     17 N2          5.7971    2.4012    3.6770 N.pl3     1 <0>         0.0000
     18 N3          1.6524   -1.2067    1.1804 N.pl3     1 <0>         0.0000
     19 N4         -1.4581    1.1158   -0.8409 N.am      1 <0>         0.0000
     20 O1         -0.2962    2.7550    0.1979 O.2       1 <0>         0.0000
     21 H1          6.0694   -2.2209    3.3139 H         1 <0>         0.0000
     22 H2          3.9444   -2.2095    2.1058 H         1 <0>         0.0000
     23 H3          7.0993   -0.1055    4.1327 H         1 <0>         0.0000
     24 H4          2.9302    2.9059    2.1123 H         1 <0>         0.0000
     25 H5          4.8823    4.3229    3.3731 H         1 <0>         0.0000
     26 H6          0.0034   -2.4474   -0.7637 H         1 <0>         0.0000
     27 H7         -0.6532   -2.6097    0.8563 H         1 <0>         0.0000
     28 H8         -2.3678   -2.1504   -0.9007 H         1 <0>         0.0000
     29 H9         -2.4047   -0.9617    0.4029 H         1 <0>         0.0000
     30 H10        -0.8285   -0.4274   -2.1514 H         1 <0>         0.0000
     31 H11        -2.5590   -0.1160   -2.0567 H         1 <0>         0.0000
     32 H12         6.6286    2.6839    4.1745 H         1 <0>         0.0000
     33 H13         1.9015   -2.1557    1.4267 H         1 <0>         0.0000
     34 H14        -2.0072    1.8877   -1.1994 H         1 <0>         0.0000
@<TRIPOS>BOND
     1    1    2 ar
     2    1    3 ar
     3    1   21 1
     4    2    7 ar
     5    2   22 1
     6    3    8 ar
     7    3   23 1
     8    4    5 2
     9    4    6 1
    10    4   24 1
    11    5   17 1
    12    5   25 1
    13    6    7 ar
    14    6    8 ar
    15    7   11 1
    16    8   17 1
    17    9   10 2
    18    9   12 1
    19    9   16 1
    20   10   13 1
    21   10   18 1
    22   11   16 2
    23   11   18 1
    24   12   19 am
    25   12   20 2
    26   13   14 1
    27   13   26 1
    28   13   27 1
    29   14   15 1
    30   14   28 1
    31   14   29 1
    32   15   19 1
    33   15   30 1
    34   15   31 1
    35   17   32 1
    36   18   33 1
    37   19   34 1
