@<TRIPOS>MOLECULE
*****
   34    36     0     0     0
SMALL
NO_CHARGES

@<TRIPOS>ATOM
      1 C1         -0.1503   -2.1593    1.6179 C.ar      1 <0>         0.0000
      2 C2          0.5371   -1.0691    1.0283 C.ar      1 <0>         0.0000
      3 C3          2.6204   -5.2837   -0.8876 C.ar      1 <0>         0.0000
      4 C4          0.2028   -3.4474    1.2834 C.ar      1 <0>         0.0000
      5 C5          1.5554   -1.2872    0.1235 C.ar      1 <0>         0.0000
      6 C6          1.6054   -5.0371    0.0149 C.ar      1 <0>         0.0000
      7 C7          3.3156   -4.2142   -1.4842 C.ar      1 <0>         0.0000
      8 C8          1.2488   -3.7058    0.3534 C.ar      1 <0>         0.0000
      9 C9          1.9503   -2.6054   -0.2484 C.ar      1 <0>         0.0000
     10 C10         3.0041   -2.8909   -1.1856 C.ar      1 <0>         0.0000
     11 C11         8.3366   -1.3778   -5.8776 C.ar      1 <0>         0.0000
     12 C12         7.8662   -0.1118   -5.4377 C.ar      1 <0>         0.0000
     13 C13         6.3685   -1.1681   -4.1324 C.ar      1 <0>         0.0000
     14 C14         3.7581   -1.8126   -1.8336 C.2       1 <0>         0.0000
     15 C15         9.4545   -1.5192   -6.8695 C.3       1 <0>         0.0000
     16 N1          7.7601   -2.4704   -5.3881 N.ar      1 <0>         0.0000
     17 N2          6.8864    0.0068   -4.5685 N.ar      1 <0>         0.0000
     18 N3          6.7598   -2.3929   -4.5016 N.ar      1 <0>         0.0000
     19 N4          4.7005   -2.0734   -2.6731 N.2       1 <0>         0.0000
     20 N5          5.3448   -1.0203   -3.2241 N.pl3     1 <0>         0.0000
     21 O1          8.4445    1.0049   -5.9283 O.3       1 <0>         0.0000
     22 H1         -0.9507   -1.9746    2.3294 H         1 <0>         0.0000
     23 H2          0.2588   -0.0519    1.2917 H         1 <0>         0.0000
     24 H3          2.8898   -6.3049   -1.1437 H         1 <0>         0.0000
     25 H4         -0.3163   -4.2933    1.7283 H         1 <0>         0.0000
     26 H5          2.0546   -0.4246   -0.3037 H         1 <0>         0.0000
     27 H6          1.0656   -5.8596    0.4784 H         1 <0>         0.0000
     28 H7          4.1135   -4.4099   -2.1934 H         1 <0>         0.0000
     29 H8          3.5069   -0.7744   -1.5918 H         1 <0>         0.0000
     30 H9         10.3734   -1.0533   -6.4975 H         1 <0>         0.0000
     31 H10         9.6379   -2.5795   -7.0519 H         1 <0>         0.0000
     32 H11         9.2062   -1.0284   -7.8167 H         1 <0>         0.0000
     33 H12         5.0950   -0.0606   -2.9842 H         1 <0>         0.0000
     34 H13         7.9920    1.7640   -5.5137 H         1 <0>         0.0000
@<TRIPOS>BOND
     1    1    2 ar
     2    1    4 ar
     3    1   22 1
     4    2    5 ar
     5    2   23 1
     6    3    6 ar
     7    3    7 ar
     8    3   24 1
     9    4    8 ar
    10    4   25 1
    11    5    9 ar
    12    5   26 1
    13    6    8 ar
    14    6   27 1
    15    7   10 ar
    16    7   28 1
    17    8    9 ar
    18    9   10 ar
    19   10   14 1
    20   11   12 ar
    21   11   15 1
    22   11   16 ar
    23   12   17 ar
    24   12   21 1
    25   13   17 ar
    26   13   18 ar
    27   13   20 1
    28   14   19 2
    29   14   29 1
    30   15   30 1
    31   15   31 1
    32   15   32 1
    33   16   18 ar
    34   19   20 1
    35   20   33 1
    36   21   34 1
