@<TRIPOS>MOLECULE
*****
   27    29     0     0     0
SMALL
NO_CHARGES

@<TRIPOS>ATOM
      1 C1          8.5075   -4.8982    0.3204 C.ar      1 <0>         0.0000
      2 C2          8.8943   -5.7828   -0.6907 C.ar      1 <0>         0.0000
      3 C3          7.3140   -4.1932    0.1979 C.ar      1 <0>         0.0000
      4 C4          2.9170   -1.7541    2.0479 C.ar      1 <0>         0.0000
      5 C5          2.0990   -1.1138    2.9684 C.ar      1 <0>         0.0000
      6 C6          8.0806   -5.9569   -1.8108 C.ar      1 <0>         0.0000
      7 C7          0.8994   -0.0697    1.1310 C.ar      1 <0>         0.0000
      8 C8          2.7566   -1.5810    0.6572 C.ar      1 <0>         0.0000
      9 C9          6.4803   -4.3398   -0.9294 C.ar      1 <0>         0.0000
     10 C10         1.0879   -0.2714    2.4963 C.ar      1 <0>         0.0000
     11 C11         1.7306   -0.7212    0.2147 C.ar      1 <0>         0.0000
     12 C12         6.8842   -5.2433   -1.9318 C.ar      1 <0>         0.0000
     13 C13         5.2509   -3.5261   -0.9484 C.2       1 <0>         0.0000
     14 C14         3.6896   -2.3199   -0.1978 C.2       1 <0>         0.0000
     15 N1          4.7354   -2.9890    0.2169 N.2       1 <0>         0.0000
     16 N2          4.5681   -3.2009   -2.0293 N.2       1 <0>         0.0000
     17 O1          3.5238   -2.3996   -1.5323 O.3       1 <0>         0.0000
     18 Cl1         0.0403    0.5458    3.6322 Cl        1 <0>         0.0000
     19 Cl2         1.4323   -0.3923   -1.4738 Cl        1 <0>         0.0000
     20 Br1         5.8400   -5.6051   -3.4942 Br        1 <0>         0.0000
     21 H1          9.1316   -4.7587    1.1984 H         1 <0>         0.0000
     22 H2          9.8225   -6.3420   -0.6111 H         1 <0>         0.0000
     23 H3          6.9982   -3.5068    0.9758 H         1 <0>         0.0000
     24 H4          3.7070   -2.4149    2.3875 H         1 <0>         0.0000
     25 H5          2.2367   -1.2640    4.0338 H         1 <0>         0.0000
     26 H6          8.3673   -6.6500   -2.5945 H         1 <0>         0.0000
     27 H7          0.1162    0.5894    0.7740 H         1 <0>         0.0000
@<TRIPOS>BOND
     1    1    2 ar
     2    1    3 ar
     3    1   21 1
     4    2    6 ar
     5    2   22 1
     6    3    9 ar
     7    3   23 1
     8    4    5 ar
     9    4    8 ar
    10    4   24 1
    11    5   10 ar
    12    5   25 1
    13    6   12 ar
    14    6   26 1
    15    7   10 ar
    16    7   11 ar
    17    7   27 1
    18    8   11 ar
    19    8   14 1
    20    9   12 ar
    21    9   13 1
    22   10   18 1
    23   11   19 1
    24   12   20 1
    25   13   15 1
    26   13   16 2
    27   14   15 2
    28   14   17 1
    29   16   17 1
