@<TRIPOS>MOLECULE
*****
   25    26     0     0     0
SMALL
NO_CHARGES

@<TRIPOS>ATOM
      1 C1         -4.0191    0.1855   -1.1428 C.ar      1 <0>         0.0000
      2 C2         -4.0346   -1.1648   -0.7800 C.ar      1 <0>         0.0000
      3 C3         -2.2664   -1.5788   -2.4005 C.ar      1 <0>         0.0000
      4 C4         -2.2365   -0.2230   -2.7553 C.ar      1 <0>         0.0000
      5 C5         -3.1472    0.6370   -2.1231 C.ar      1 <0>         0.0000
      6 C6         -3.1563   -2.0318   -1.4287 C.ar      1 <0>         0.0000
      7 C7          0.4803    0.2869   -0.6006 C.3       1 <0>         0.0000
      8 C8          1.1513   -0.5452   -1.6918 C.3       1 <0>         0.0000
      9 C9          0.4058    1.4315   -2.6117 C.3       1 <0>         0.0000
     10 C10        -0.6500    1.3684   -3.7136 C.3       1 <0>         0.0000
     11 O1         -0.2180    1.2962   -1.3409 O.3       1 <0>         0.0000
     12 O2          1.3942    0.4187   -2.7238 O.3       1 <0>         0.0000
     13 O3         -1.3650    0.1232   -3.7499 O.3       1 <0>         0.0000
     14 F1         -3.1882    1.9507   -2.4658 F         1 <0>         0.0000
     15 Br1        -3.1565   -3.8958   -0.9718 Br        1 <0>         0.0000
     16 H1         -4.6918    0.8992   -0.6767 H         1 <0>         0.0000
     17 H2         -4.7187   -1.5254   -0.0202 H         1 <0>         0.0000
     18 H3         -1.5866   -2.2561   -2.9054 H         1 <0>         0.0000
     19 H4         -0.2529   -0.2728   -0.0150 H         1 <0>         0.0000
     20 H5          1.2146    0.7534    0.0682 H         1 <0>         0.0000
     21 H6          2.1117   -0.9688   -1.3898 H         1 <0>         0.0000
     22 H7          0.4945   -1.3420   -2.0560 H         1 <0>         0.0000
     23 H8          0.9206    2.4018   -2.6848 H         1 <0>         0.0000
     24 H9         -0.1454    1.4212   -4.6804 H         1 <0>         0.0000
     25 H10        -1.3274    2.2183   -3.6137 H         1 <0>         0.0000
@<TRIPOS>BOND
     1    1    2 ar
     2    1    5 ar
     3    1   16 1
     4    2    6 ar
     5    2   17 1
     6    3    4 ar
     7    3    6 ar
     8    3   18 1
     9    4    5 ar
    10    4   13 1
    11    5   14 1
    12    6   15 1
    13    7    8 1
    14    7   11 1
    15    7   19 1
    16    7   20 1
    17    8   12 1
    18    8   21 1
    19    8   22 1
    20    9   10 1
    21    9   12 1
    22    9   11 1
    23    9   23 1
    24   10   13 1
    25   10   24 1
    26   10   25 1
