@<TRIPOS>MOLECULE
*****
   39    41     0     0     0
SMALL
NO_CHARGES

@<TRIPOS>ATOM
      1 C1         -4.3362   -4.8775    6.5240 C.ar      1 <0>         0.0000
      2 C2         -5.5699   -4.4878    5.9798 C.ar      1 <0>         0.0000
      3 C3         -3.3424   -5.4426    5.7179 C.ar      1 <0>         0.0000
      4 C4         -5.8405   -4.6541    4.6153 C.ar      1 <0>         0.0000
      5 C5         -4.9926   -9.0964   -0.7417 C.2       1 <0>         0.0000
      6 C6         -3.6078   -5.6070    4.3589 C.ar      1 <0>         0.0000
      7 C7         -4.0206   -8.5468    0.1610 C.2       1 <0>         0.0000
      8 C8         -4.8347   -5.2103    3.8365 C.ar      1 <0>         0.0000
      9 C9         -5.6205  -10.1386   -0.1098 C.2       1 <0>         0.0000
     10 C10        -4.0693   -9.3082    1.3351 C.2       1 <0>         0.0000
     11 C11        -2.6792   -6.1760    3.3429 C.2       1 <0>         0.0000
     12 C12        -3.2343   -7.3700   -0.1946 C.2       1 <0>         0.0000
     13 C13        -6.7311  -11.0222   -0.5819 C.3       1 <0>         0.0000
     14 C14        -3.2474   -9.2958    2.5847 C.3       1 <0>         0.0000
     15 C15        -5.3796  -11.2879    2.1312 C.3       1 <0>         0.0000
     16 C16        -2.5823   -6.4662    0.8664 C.3       1 <0>         0.0000
     17 N1         -5.0455  -10.2605    1.1586 N.pl3     1 <0>         0.0000
     18 N2         -3.3288   -6.2773    2.1139 N.am      1 <0>         0.0000
     19 O1         -1.5225   -6.5174    3.5396 O.2       1 <0>         0.0000
     20 O2         -3.0796   -7.0211   -1.3642 O.2       1 <0>         0.0000
     21 O3         -5.9258   -6.5611    1.8126 O.2       1 <0>         0.0000
     22 O4         -4.8485   -4.3379    1.2757 O.2       1 <0>         0.0000
     23 S1         -4.9078   -5.5527    2.0851 S.o2      1 <0>         0.0000
     24 H1         -4.1534   -4.7365    7.5854 H         1 <0>         0.0000
     25 H2         -6.3270   -4.0497    6.6239 H         1 <0>         0.0000
     26 H3         -2.3815   -5.7497    6.1194 H         1 <0>         0.0000
     27 H4         -6.7931   -4.3579    4.1869 H         1 <0>         0.0000
     28 H5         -5.2093   -8.7134   -1.7292 H         1 <0>         0.0000
     29 H6         -6.4508  -12.0828   -0.5892 H         1 <0>         0.0000
     30 H7         -7.6349  -10.9197    0.0319 H         1 <0>         0.0000
     31 H8         -6.9962  -10.7438   -1.6042 H         1 <0>         0.0000
     32 H9         -3.7970   -8.8672    3.4327 H         1 <0>         0.0000
     33 H10        -2.9490  -10.3108    2.8693 H         1 <0>         0.0000
     34 H11        -2.3331   -8.7198    2.4584 H         1 <0>         0.0000
     35 H12        -4.6367  -12.0945    2.1355 H         1 <0>         0.0000
     36 H13        -5.4391  -10.8584    3.1339 H         1 <0>         0.0000
     37 H14        -6.3519  -11.7158    1.8881 H         1 <0>         0.0000
     38 H15        -2.4064   -5.5005    0.3850 H         1 <0>         0.0000
     39 H16        -1.6140   -6.8796    1.1631 H         1 <0>         0.0000
@<TRIPOS>BOND
     1    1    2 ar
     2    1    3 ar
     3    1   24 1
     4    2    4 ar
     5    2   25 1
     6    3    6 ar
     7    3   26 1
     8    4    8 ar
     9    4   27 1
    10    5    7 1
    11    5    9 2
    12    5   28 1
    13    6    8 ar
    14    6   11 1
    15    7   10 2
    16    7   12 1
    17    8   23 1
    18    9   13 1
    19    9   17 1
    20   10   14 1
    21   10   17 1
    22   11   18 am
    23   11   19 2
    24   12   16 1
    25   12   20 2
    26   13   29 1
    27   13   30 1
    28   13   31 1
    29   14   32 1
    30   14   33 1
    31   14   34 1
    32   15   17 1
    33   15   35 1
    34   15   36 1
    35   15   37 1
    36   16   18 1
    37   16   38 1
    38   16   39 1
    39   18   23 1
    40   21   23 2
    41   22   23 2
