@<TRIPOS>MOLECULE
*****
   36    38     0     0     0
SMALL
NO_CHARGES

@<TRIPOS>ATOM
      1 C1          4.0746   -4.0863    1.6243 C.1       1 <0>         0.0000
      2 C2         -2.4497   -2.5603    2.9019 C.1       1 <0>         0.0000
      3 C3         -7.3463    3.1410    4.8838 C.ar      1 <0>         0.0000
      4 C4         -8.3930    2.2427    5.1122 C.ar      1 <0>         0.0000
      5 C5          1.6358   -3.9406    1.9402 C.ar      1 <0>         0.0000
      6 C6          3.0420   -2.0389    2.5182 C.ar      1 <0>         0.0000
      7 C7         -6.0648    2.6489    4.6532 C.ar      1 <0>         0.0000
      8 C8          0.5063   -3.2330    2.3313 C.ar      1 <0>         0.0000
      9 C9          1.9084   -1.3372    2.9075 C.ar      1 <0>         0.0000
     10 C10        -8.1423    0.8693    5.1124 C.ar      1 <0>         0.0000
     11 C11         2.9102   -3.3505    2.0302 C.ar      1 <0>         0.0000
     12 C12        -5.8103    1.2643    4.6475 C.ar      1 <0>         0.0000
     13 C13         0.6203   -1.9132    2.8241 C.ar      1 <0>         0.0000
     14 C14        -6.8606    0.3457    4.8838 C.ar      1 <0>         0.0000
     15 C15        -4.4252    0.8322    4.3966 C.2       1 <0>         0.0000
     16 C16        -2.7626   -0.3127    3.7958 C.2       1 <0>         0.0000
     17 C17        -0.4931   -1.0831    3.2600 C.2       1 <0>         0.0000
     18 C18        -1.8334   -1.3301    3.3069 C.2       1 <0>         0.0000
     19 C19        -6.6678   -1.1533    4.9193 C.3       1 <0>         0.0000
     20 N1          5.0206   -4.6820    1.2953 N.1       1 <0>         0.0000
     21 N2         -2.9439   -3.5628    2.5742 N.1       1 <0>         0.0000
     22 N3         -4.0608   -0.4008    3.8787 N.2       1 <0>         0.0000
     23 N4         -3.3969    1.6316    4.6271 N.2       1 <0>         0.0000
     24 O1         -2.2803    0.8729    4.2197 O.3       1 <0>         0.0000
     25 H1         -7.5276    4.2122    4.8795 H         1 <0>         0.0000
     26 H2         -9.4009    2.6087    5.2903 H         1 <0>         0.0000
     27 H3          1.5398   -4.9537    1.5626 H         1 <0>         0.0000
     28 H4          4.0250   -1.5842    2.5875 H         1 <0>         0.0000
     29 H5         -5.2431    3.3328    4.4654 H         1 <0>         0.0000
     30 H6         -0.4602   -3.7123    2.2507 H         1 <0>         0.0000
     31 H7          2.0146   -0.3233    3.2843 H         1 <0>         0.0000
     32 H8         -8.9611    0.1789    5.2989 H         1 <0>         0.0000
     33 H9         -0.2054   -0.0943    3.6087 H         1 <0>         0.0000
     34 H10        -6.4221   -1.5504    3.9314 H         1 <0>         0.0000
     35 H11        -5.8460   -1.4424    5.5802 H         1 <0>         0.0000
     36 H12        -7.5801   -1.6400    5.2737 H         1 <0>         0.0000
@<TRIPOS>BOND
     1    1   11 1
     2    1   20 3
     3    2   18 1
     4    2   21 3
     5    3    4 ar
     6    3    7 ar
     7    3   25 1
     8    4   10 ar
     9    4   26 1
    10    5    8 ar
    11    5   11 ar
    12    5   27 1
    13    6    9 ar
    14    6   11 ar
    15    6   28 1
    16    7   12 ar
    17    7   29 1
    18    8   13 ar
    19    8   30 1
    20    9   13 ar
    21    9   31 1
    22   10   14 ar
    23   10   32 1
    24   12   14 ar
    25   12   15 1
    26   13   17 1
    27   14   19 1
    28   15   22 1
    29   15   23 2
    30   16   18 1
    31   16   22 2
    32   16   24 1
    33   17   18 2
    34   17   33 1
    35   19   34 1
    36   19   35 1
    37   19   36 1
    38   23   24 1
