@<TRIPOS>MOLECULE
*****
   34    36     0     0     0
SMALL
NO_CHARGES

@<TRIPOS>ATOM
      1 C1         -0.7414   -2.1794   -0.0160 C.ar      1 <0>         0.0000
      2 C2          0.1326   -1.1128   -0.3437 C.ar      1 <0>         0.0000
      3 C3          3.0362   -5.2489    0.1423 C.ar      1 <0>         0.0000
      4 C4         -0.2298   -3.4428    0.1792 C.ar      1 <0>         0.0000
      5 C5          1.4893   -1.3293   -0.4685 C.ar      1 <0>         0.0000
      6 C6          1.6827   -5.0045    0.2609 C.ar      1 <0>         0.0000
      7 C7          3.9209   -4.2026   -0.1826 C.ar      1 <0>         0.0000
      8 C8          1.1650   -3.6987    0.0577 C.ar      1 <0>         0.0000
      9 C9          2.0572   -2.6222   -0.2743 C.ar      1 <0>         0.0000
     10 C10         3.4630   -2.9049   -0.3916 C.ar      1 <0>         0.0000
     11 C11        10.4773   -1.4358   -1.5684 C.ar      1 <0>         0.0000
     12 C12         9.8095   -0.1940   -1.7402 C.ar      1 <0>         0.0000
     13 C13         7.8623   -1.2253   -1.2849 C.ar      1 <0>         0.0000
     14 C14         4.4252   -1.8502   -0.7279 C.2       1 <0>         0.0000
     15 C15        11.9636   -1.5772   -1.7251 C.3       1 <0>         0.0000
     16 N1          9.7520   -2.5050   -1.2580 N.ar      1 <0>         0.0000
     17 N2          8.5071   -0.0753   -1.6019 N.ar      1 <0>         0.0000
     18 N3          8.4238   -2.4266   -1.1081 N.ar      1 <0>         0.0000
     19 N4          5.6836   -2.1081   -0.8316 N.2       1 <0>         0.0000
     20 N5          6.5008   -1.0777   -1.1449 N.pl3     1 <0>         0.0000
     21 O1         10.5363    0.8988   -2.0558 O.3       1 <0>         0.0000
     22 H1         -1.8083   -1.9962    0.0794 H         1 <0>         0.0000
     23 H2         -0.2705   -0.1152   -0.4979 H         1 <0>         0.0000
     24 H3          3.4279   -6.2504    0.2988 H         1 <0>         0.0000
     25 H4         -0.8890   -4.2704    0.4310 H         1 <0>         0.0000
     26 H5          2.1216   -0.4852   -0.7204 H         1 <0>         0.0000
     27 H6          0.9954   -5.8091    0.5116 H         1 <0>         0.0000
     28 H7          4.9847   -4.3965   -0.2755 H         1 <0>         0.0000
     29 H8          4.0559   -0.8321   -0.8910 H         1 <0>         0.0000
     30 H9         12.4979   -0.9332   -1.0184 H         1 <0>         0.0000
     31 H10        12.2441   -2.6167   -1.5463 H         1 <0>         0.0000
     32 H11        12.2839   -1.2854   -2.7310 H         1 <0>         0.0000
     33 H12         6.1355   -0.1367   -1.2933 H         1 <0>         0.0000
     34 H13         9.9101    1.6439   -2.1307 H         1 <0>         0.0000
@<TRIPOS>BOND
     1    1    2 ar
     2    1    4 ar
     3    1   22 1
     4    2    5 ar
     5    2   23 1
     6    3    6 ar
     7    3    7 ar
     8    3   24 1
     9    4    8 ar
    10    4   25 1
    11    5    9 ar
    12    5   26 1
    13    6    8 ar
    14    6   27 1
    15    7   10 ar
    16    7   28 1
    17    8    9 ar
    18    9   10 ar
    19   10   14 1
    20   11   12 ar
    21   11   15 1
    22   11   16 ar
    23   12   17 ar
    24   12   21 1
    25   13   17 ar
    26   13   18 ar
    27   13   20 1
    28   14   19 2
    29   14   29 1
    30   15   30 1
    31   15   31 1
    32   15   32 1
    33   16   18 ar
    34   19   20 1
    35   20   33 1
    36   21   34 1
