@<TRIPOS>MOLECULE
*****
   39    41     0     0     0
SMALL
NO_CHARGES

@<TRIPOS>ATOM
      1 C1          2.0465   -7.9353    2.5918 C.ar      1 <0>         0.0000
      2 C2          2.2473   -8.3184    1.2565 C.ar      1 <0>         0.0000
      3 C3          0.8374   -7.3626    3.0002 C.ar      1 <0>         0.0000
      4 C4          1.2432   -8.1386    0.2963 C.ar      1 <0>         0.0000
      5 C5         -5.6751   -8.6485   -0.7017 C.2       1 <0>         0.0000
      6 C6         -0.1630   -7.1800    2.0462 C.ar      1 <0>         0.0000
      7 C7         -4.9419   -7.9458    0.3133 C.2       1 <0>         0.0000
      8 C8          0.0560   -7.5614    0.7263 C.ar      1 <0>         0.0000
      9 C9         -5.7304   -9.9722   -0.3490 C.2       1 <0>         0.0000
     10 C10        -4.5876   -8.8830    1.2915 C.2       1 <0>         0.0000
     11 C11        -1.5064   -6.5817    2.2825 C.2       1 <0>         0.0000
     12 C12        -4.6457   -6.5224    0.1878 C.2       1 <0>         0.0000
     13 C13        -6.3354  -11.1360   -1.0679 C.3       1 <0>         0.0000
     14 C14        -3.9166   -8.7532    2.6219 C.3       1 <0>         0.0000
     15 C15        -4.9488  -11.3376    1.6319 C.3       1 <0>         0.0000
     16 C16        -3.4818   -5.8556    0.9418 C.3       1 <0>         0.0000
     17 N1         -5.0643  -10.1031    0.8730 N.pl3     1 <0>         0.0000
     18 N2         -2.2695   -6.6606    1.1189 N.am      1 <0>         0.0000
     19 O1         -1.9020   -6.0987    3.3330 O.2       1 <0>         0.0000
     20 O2         -5.2938   -5.7871   -0.5558 O.2       1 <0>         0.0000
     21 O3         -1.1937   -6.1133   -1.1868 O.2       1 <0>         0.0000
     22 O4         -1.9628   -8.4823   -0.7530 O.2       1 <0>         0.0000
     23 S1         -1.3910   -7.2314   -0.2674 S.o2      1 <0>         0.0000
     24 H1          2.8427   -8.0862    3.3151 H         1 <0>         0.0000
     25 H2          3.1947   -8.7601    0.9608 H         1 <0>         0.0000
     26 H3          0.6627   -7.0590    4.0279 H         1 <0>         0.0000
     27 H4          1.3894   -8.4347   -0.7379 H         1 <0>         0.0000
     28 H5         -6.0697   -8.2023   -1.6040 H         1 <0>         0.0000
     29 H6         -5.5851  -11.8826   -1.3574 H         1 <0>         0.0000
     30 H7         -7.1019  -11.6464   -0.4719 H         1 <0>         0.0000
     31 H8         -6.8125  -10.7790   -1.9833 H         1 <0>         0.0000
     32 H9         -4.4555   -9.3173    3.3910 H         1 <0>         0.0000
     33 H10        -2.8866   -9.1322    2.6005 H         1 <0>         0.0000
     34 H11        -3.8809   -7.7179    2.9543 H         1 <0>         0.0000
     35 H12        -3.9453  -11.4333    2.0525 H         1 <0>         0.0000
     36 H13        -5.6798  -11.3778    2.4483 H         1 <0>         0.0000
     37 H14        -5.1215  -12.1873    0.9718 H         1 <0>         0.0000
     38 H15        -3.8017   -5.5800    1.9510 H         1 <0>         0.0000
     39 H16        -3.2458   -4.9373    0.3977 H         1 <0>         0.0000
@<TRIPOS>BOND
     1    1    2 ar
     2    1    3 ar
     3    1   24 1
     4    2    4 ar
     5    2   25 1
     6    3    6 ar
     7    3   26 1
     8    4    8 ar
     9    4   27 1
    10    5    7 1
    11    5    9 2
    12    5   28 1
    13    6    8 ar
    14    6   11 1
    15    7   10 2
    16    7   12 1
    17    8   23 1
    18    9   13 1
    19    9   17 1
    20   10   14 1
    21   10   17 1
    22   11   18 am
    23   11   19 2
    24   12   16 1
    25   12   20 2
    26   13   29 1
    27   13   30 1
    28   13   31 1
    29   14   32 1
    30   14   33 1
    31   14   34 1
    32   15   17 1
    33   15   35 1
    34   15   36 1
    35   15   37 1
    36   16   18 1
    37   16   38 1
    38   16   39 1
    39   18   23 1
    40   21   23 2
    41   22   23 2
