@<TRIPOS>MOLECULE
*****
   35    38     0     0     0
SMALL
NO_CHARGES

@<TRIPOS>ATOM
      1 C1          7.6116   -0.8812    2.4232 C.ar      1 <0>         0.0000
      2 C2          6.2501   -0.7001    2.0689 C.ar      1 <0>         0.0000
      3 C3          6.1722    4.4609   -4.8247 C.ar      1 <0>         0.0000
      4 C4          7.4816    4.2032   -4.3649 C.ar      1 <0>         0.0000
      5 C5          8.4756   -2.9195   -1.9114 C.ar      1 <0>         0.0000
      6 C6          8.4857   -1.4726    1.5355 C.ar      1 <0>         0.0000
      7 C7          5.7922   -1.1078    0.8328 C.ar      1 <0>         0.0000
      8 C8          5.1569    3.5369   -4.6137 C.ar      1 <0>         0.0000
      9 C9          8.9349   -2.5131   -0.6765 C.ar      1 <0>         0.0000
     10 C10         7.1236   -2.7247   -2.2798 C.ar      1 <0>         0.0000
     11 C11         7.7859    3.0223   -3.6935 C.ar      1 <0>         0.0000
     12 C12         8.0463   -1.9061    0.2537 C.ar      1 <0>         0.0000
     13 C13         6.6724   -1.7149   -0.1027 C.ar      1 <0>         0.0000
     14 C14         5.4451    2.3369   -3.9325 C.ar      1 <0>         0.0000
     15 C15         6.2339   -2.1188   -1.4066 C.ar      1 <0>         0.0000
     16 C16         4.5712    1.2454   -3.5959 C.2       1 <0>         0.0000
     17 C17         6.7634    2.0889   -3.4769 C.ar      1 <0>         0.0000
     18 C18         5.1921    0.2129   -2.9218 C.2       1 <0>         0.0000
     19 C19         4.4717   -0.9551   -2.4392 C.2       1 <0>         0.0000
     20 N1          4.8785   -1.9679   -1.7611 N.2       1 <0>         0.0000
     21 O1          3.2405    1.2045   -3.9013 O.3       1 <0>         0.0000
     22 S1          6.9140    0.5425   -2.6753 S.3       1 <0>         0.0000
     23 H1          7.9624   -0.5548    3.3991 H         1 <0>         0.0000
     24 H2          5.5660   -0.2413    2.7782 H         1 <0>         0.0000
     25 H3          5.9600    5.3883   -5.3488 H         1 <0>         0.0000
     26 H4          8.2640    4.9368   -4.5384 H         1 <0>         0.0000
     27 H5          9.1539   -3.3871   -2.6206 H         1 <0>         0.0000
     28 H6          9.5297   -1.6160    1.8055 H         1 <0>         0.0000
     29 H7          4.7495   -0.9762    0.5623 H         1 <0>         0.0000
     30 H8          4.1539    3.7501   -4.9808 H         1 <0>         0.0000
     31 H9          9.9763   -2.6552   -0.3982 H         1 <0>         0.0000
     32 H10         6.7715   -3.0377   -3.2585 H         1 <0>         0.0000
     33 H11         8.7958    2.8284   -3.3427 H         1 <0>         0.0000
     34 H12         3.4082   -0.9362   -2.6865 H         1 <0>         0.0000
     35 H13         2.9745    2.0509   -4.2933 H         1 <0>         0.0000
@<TRIPOS>BOND
     1    1    2 ar
     2    1    6 ar
     3    1   23 1
     4    2    7 ar
     5    2   24 1
     6    3    4 ar
     7    3    8 ar
     8    3   25 1
     9    4   11 ar
    10    4   26 1
    11    5    9 ar
    12    5   10 ar
    13    5   27 1
    14    6   12 ar
    15    6   28 1
    16    7   13 ar
    17    7   29 1
    18    8   14 ar
    19    8   30 1
    20    9   12 ar
    21    9   31 1
    22   10   15 ar
    23   10   32 1
    24   11   17 ar
    25   11   33 1
    26   12   13 ar
    27   13   15 ar
    28   14   16 1
    29   14   17 ar
    30   15   20 1
    31   16   18 2
    32   16   21 1
    33   17   22 1
    34   18   19 1
    35   18   22 1
    36   19   20 2
    37   19   34 1
    38   21   35 1
