@<TRIPOS>MOLECULE
*****
   25    26     0     0     0
SMALL
NO_CHARGES

@<TRIPOS>ATOM
      1 C1         -3.8979   -6.7152   -4.2952 C.ar      1 <0>         0.0000
      2 C2         -3.4305   -7.9039   -3.7283 C.ar      1 <0>         0.0000
      3 C3         -1.5257   -6.6909   -2.8152 C.ar      1 <0>         0.0000
      4 C4         -1.9903   -5.4972   -3.3835 C.ar      1 <0>         0.0000
      5 C5         -3.1771   -5.5395   -4.1302 C.ar      1 <0>         0.0000
      6 C6         -2.2407   -7.8726   -2.9992 C.ar      1 <0>         0.0000
      7 C7          0.8116   -3.3897   -1.0329 C.3       1 <0>         0.0000
      8 C8          1.3532   -2.3145   -1.9707 C.3       1 <0>         0.0000
      9 C9         -0.9528   -2.3100   -2.0348 C.3       1 <0>         0.0000
     10 C10        -1.8961   -3.1501   -2.8842 C.3       1 <0>         0.0000
     11 O1         -0.5497   -2.9784   -0.8469 O.3       1 <0>         0.0000
     12 O2          0.2159   -1.9907   -2.7785 O.3       1 <0>         0.0000
     13 O3         -1.2291   -4.3779   -3.2232 O.3       1 <0>         0.0000
     14 F1         -3.6305   -4.4031   -4.7226 F         1 <0>         0.0000
     15 Br1        -1.5767   -9.4929   -2.2173 Br        1 <0>         0.0000
     16 H1         -4.8110   -6.6939   -4.8823 H         1 <0>         0.0000
     17 H2         -3.9795   -8.8298   -3.8580 H         1 <0>         0.0000
     18 H3         -0.6096   -6.6648   -2.2357 H         1 <0>         0.0000
     19 H4          0.8512   -4.3828   -1.4937 H         1 <0>         0.0000
     20 H5          1.2967   -3.4077   -0.0544 H         1 <0>         0.0000
     21 H6          1.6908   -1.4282   -1.4173 H         1 <0>         0.0000
     22 H7          2.1513   -2.6651   -2.6291 H         1 <0>         0.0000
     23 H8         -1.4779   -1.3907   -1.7346 H         1 <0>         0.0000
     24 H9         -2.1641   -2.5989   -3.7902 H         1 <0>         0.0000
     25 H10        -2.8012   -3.3576   -2.3043 H         1 <0>         0.0000
@<TRIPOS>BOND
     1    1    2 ar
     2    1    5 ar
     3    1   16 1
     4    2    6 ar
     5    2   17 1
     6    3    4 ar
     7    3    6 ar
     8    3   18 1
     9    4    5 ar
    10    4   13 1
    11    5   14 1
    12    6   15 1
    13    7    8 1
    14    7   11 1
    15    7   19 1
    16    7   20 1
    17    8   12 1
    18    8   21 1
    19    8   22 1
    20    9   10 1
    21    9   12 1
    22    9   11 1
    23    9   23 1
    24   10   13 1
    25   10   24 1
    26   10   25 1
