@<TRIPOS>MOLECULE
*****
   34    37     0     0     0
SMALL
NO_CHARGES

@<TRIPOS>ATOM
      1 C1          6.0974    0.7442    2.2222 C.ar      1 <0>         0.0000
      2 C2          4.8564    0.7158    1.5608 C.ar      1 <0>         0.0000
      3 C3          6.2620    0.1638    3.4785 C.ar      1 <0>         0.0000
      4 C4          2.9549   -1.0877    4.3587 C.2       1 <0>         0.0000
      5 C5          3.6826   -1.4174    5.4796 C.2       1 <0>         0.0000
      6 C6          3.8605   -0.4575    3.4278 C.ar      1 <0>         0.0000
      7 C7          3.7333    0.1098    2.1334 C.ar      1 <0>         0.0000
      8 C8          5.1358   -0.4255    4.0634 C.ar      1 <0>         0.0000
      9 C9          0.9278    0.4343   -0.0935 C.2       1 <0>         0.0000
     10 C10         0.4972   -0.6675    0.6418 C.2       1 <0>         0.0000
     11 C11         2.4873    0.0665    1.3675 C.2       1 <0>         0.0000
     12 C12         0.2867    1.1828   -1.2103 C.2       1 <0>         0.0000
     13 C13        -0.6942   -1.5766    0.6025 C.3       1 <0>         0.0000
     14 C14        -1.8270   -1.0946   -0.3068 C.3       1 <0>         0.0000
     15 C15        -1.3463   -0.7226   -1.7159 C.3       1 <0>         0.0000
     16 N1          2.1559    0.8671    0.3742 N.2       1 <0>         0.0000
     17 N2          4.9967   -1.0306    5.3022 N.pl3     1 <0>         0.0000
     18 N3          1.4969   -0.8774    1.5685 N.pl3     1 <0>         0.0000
     19 N4         -0.8309    0.6380   -1.8111 N.am      1 <0>         0.0000
     20 O1          0.7157    2.2721   -1.5870 O.2       1 <0>         0.0000
     21 H1          6.9454    1.2199    1.7376 H         1 <0>         0.0000
     22 H2          4.7505    1.1617    0.5772 H         1 <0>         0.0000
     23 H3          7.2240    0.1775    3.9847 H         1 <0>         0.0000
     24 H4          1.8861   -1.2238    4.2656 H         1 <0>         0.0000
     25 H5          3.3626   -1.8881    6.3997 H         1 <0>         0.0000
     26 H6         -0.3675   -2.5710    0.2655 H         1 <0>         0.0000
     27 H7         -1.0821   -1.7130    1.6202 H         1 <0>         0.0000
     28 H8         -2.5699   -1.8967   -0.3792 H         1 <0>         0.0000
     29 H9         -2.3270   -0.2247    0.1311 H         1 <0>         0.0000
     30 H10        -0.6023   -1.4558   -2.0609 H         1 <0>         0.0000
     31 H11        -2.1897   -0.7776   -2.4089 H         1 <0>         0.0000
     32 H12         5.7322   -1.1299    5.9868 H         1 <0>         0.0000
     33 H13         1.5482   -1.6599    2.2083 H         1 <0>         0.0000
     34 H14        -1.1403    1.2005   -2.5947 H         1 <0>         0.0000
@<TRIPOS>BOND
     1    1    2 ar
     2    1    3 ar
     3    1   21 1
     4    2    7 ar
     5    2   22 1
     6    3    8 ar
     7    3   23 1
     8    4    5 2
     9    4    6 1
    10    4   24 1
    11    5   17 1
    12    5   25 1
    13    6    7 ar
    14    6    8 ar
    15    7   11 1
    16    8   17 1
    17    9   10 2
    18    9   12 1
    19    9   16 1
    20   10   13 1
    21   10   18 1
    22   11   16 2
    23   11   18 1
    24   12   19 am
    25   12   20 2
    26   13   14 1
    27   13   26 1
    28   13   27 1
    29   14   15 1
    30   14   28 1
    31   14   29 1
    32   15   19 1
    33   15   30 1
    34   15   31 1
    35   17   32 1
    36   18   33 1
    37   19   34 1
