@<TRIPOS>MOLECULE
*****
   25    26     0     0     0
SMALL
NO_CHARGES

@<TRIPOS>ATOM
      1 C1          3.5557   -0.0561   -2.3423 C.ar      1 <0>         0.0000
      2 C2          4.8603   -0.5186   -2.5068 C.ar      1 <0>         0.0000
      3 C3          3.1826    0.4642   -1.1010 C.ar      1 <0>         0.0000
      4 C4          0.3044   -0.2691    1.1782 C.ar      1 <0>         0.0000
      5 C5          2.2594   -1.3265    2.0767 C.ar      1 <0>         0.0000
      6 C6          5.7385   -0.4323   -1.4171 C.ar      1 <0>         0.0000
      7 C7         -0.3056   -1.5224    1.1573 C.ar      1 <0>         0.0000
      8 C8          1.6206   -0.1586    1.6478 C.ar      1 <0>         0.0000
      9 C9          4.1379    0.5192   -0.0763 C.ar      1 <0>         0.0000
     10 C10         1.5466   -2.5265    1.9994 C.ar      1 <0>         0.0000
     11 C11         3.8095    1.0934    1.2842 C.2       1 <0>         0.0000
     12 C12         2.3361    1.1739    1.6989 C.3       1 <0>         0.0000
     13 N1          5.3975    0.0773   -0.2327 N.ar      1 <0>         0.0000
     14 N2          0.3070   -2.6484    1.5590 N.ar      1 <0>         0.0000
     15 O1          4.6853    1.4706    2.0406 O.2       1 <0>         0.0000
     16 Br1         2.4283   -4.1441    2.5651 Br        1 <0>         0.0000
     17 H1          2.8396   -0.1046   -3.1582 H         1 <0>         0.0000
     18 H2          5.1969   -0.9411   -3.4493 H         1 <0>         0.0000
     19 H3          2.1700    0.8183   -0.9431 H         1 <0>         0.0000
     20 H4         -0.2411    0.6057    0.8339 H         1 <0>         0.0000
     21 H5          3.2781   -1.3128    2.4501 H         1 <0>         0.0000
     22 H6          6.7623   -0.7928   -1.5067 H         1 <0>         0.0000
     23 H7         -1.3274   -1.6377    0.8007 H         1 <0>         0.0000
     24 H8          1.8146    1.9013    1.0668 H         1 <0>         0.0000
     25 H9          2.3289    1.5690    2.7185 H         1 <0>         0.0000
@<TRIPOS>BOND
     1    1    2 ar
     2    1    3 ar
     3    1   17 1
     4    2    6 ar
     5    2   18 1
     6    3    9 ar
     7    3   19 1
     8    4    7 ar
     9    4    8 ar
    10    4   20 1
    11    5    8 ar
    12    5   10 ar
    13    5   21 1
    14    6   13 ar
    15    6   22 1
    16    7   14 ar
    17    7   23 1
    18    8   12 1
    19    9   11 1
    20    9   13 ar
    21   10   14 ar
    22   10   16 1
    23   11   12 1
    24   11   15 2
    25   12   24 1
    26   12   25 1
