@<TRIPOS>MOLECULE
*****
   43    45     0     0     0
SMALL
NO_CHARGES

@<TRIPOS>ATOM
      1 C1         -6.4512   -2.0967    5.9547 C.ar      1 <0>         0.0000
      2 C2         -7.3045   -2.0201    4.8337 C.ar      1 <0>         0.0000
      3 C3         -5.1168   -1.7057    5.8545 C.ar      1 <0>         0.0000
      4 C4         -6.8580   -1.5419    3.6006 C.ar      1 <0>         0.0000
      5 C5         -4.6591   -1.2400    4.6184 C.ar      1 <0>         0.0000
      6 C6         -5.5199   -1.1425    3.5161 C.ar      1 <0>         0.0000
      7 C7         -3.3281   -0.7832    4.1869 C.2       1 <0>         0.0000
      8 C8         -2.3651   -0.3119    0.6627 C.2       1 <0>         0.0000
      9 C9          0.3405   -0.1924   -1.8779 C.3       1 <0>         0.0000
     10 C10        -1.1200   -0.3710   -1.4358 C.3       1 <0>         0.0000
     11 C11        -0.3780    1.1953    0.3347 C.3       1 <0>         0.0000
     12 C12         1.0943    0.7238    0.3520 C.3       1 <0>         0.0000
     13 C13         1.3151   -0.4064   -0.7042 C.3       1 <0>         0.0000
     14 C14         1.9975    1.9532    0.1953 C.3       1 <0>         0.0000
     15 C15         2.7559   -0.4974   -1.1992 C.3       1 <0>         0.0000
     16 C16        -2.5603    0.2731    2.0678 C.3       1 <0>         0.0000
     17 N1         -4.8453   -0.5808    2.4189 N.pl3     1 <0>         0.0000
     18 N2         -3.4873   -0.5166    2.8295 N.am      1 <0>         0.0000
     19 N3         -1.2941    0.1240   -0.0571 N.am      1 <0>         0.0000
     20 O1         -2.2795   -0.6258    4.8139 O.2       1 <0>         0.0000
     21 O2         -3.1628   -1.1421    0.2113 O.2       1 <0>         0.0000
     22 O3          1.0679   -1.6919   -0.0976 O.3       1 <0>         0.0000
     23 H1         -6.8416   -2.4673    6.8982 H         1 <0>         0.0000
     24 H2         -8.3399   -2.3357    4.9334 H         1 <0>         0.0000
     25 H3         -4.4377   -1.7634    6.7004 H         1 <0>         0.0000
     26 H4         -7.5262   -1.4753    2.7464 H         1 <0>         0.0000
     27 H5          0.5572   -0.9100   -2.6743 H         1 <0>         0.0000
     28 H6          0.5006    0.8083   -2.2962 H         1 <0>         0.0000
     29 H7         -1.8054    0.1584   -2.1093 H         1 <0>         0.0000
     30 H8         -1.4083   -1.4221   -1.4487 H         1 <0>         0.0000
     31 H9         -0.6562    1.5989    1.3066 H         1 <0>         0.0000
     32 H10        -0.4913    2.0182   -0.3845 H         1 <0>         0.0000
     33 H11         1.3049    0.2638    1.3244 H         1 <0>         0.0000
     34 H12         1.8942    2.4037   -0.7987 H         1 <0>         0.0000
     35 H13         3.0506    1.7083    0.3489 H         1 <0>         0.0000
     36 H14         1.7270    2.7187    0.9316 H         1 <0>         0.0000
     37 H15         3.4474   -0.6007   -0.3580 H         1 <0>         0.0000
     38 H16         3.0398    0.3806   -1.7848 H         1 <0>         0.0000
     39 H17         2.8593   -1.3846   -1.8301 H         1 <0>         0.0000
     40 H18        -2.9114    1.3117    1.9791 H         1 <0>         0.0000
     41 H19        -1.6357    0.2738    2.6497 H         1 <0>         0.0000
     42 H20        -4.8897   -1.1073    1.5435 H         1 <0>         0.0000
     43 H21         0.2048   -1.6614    0.3464 H         1 <0>         0.0000
@<TRIPOS>BOND
     1    1    2 ar
     2    1    3 ar
     3    1   23 1
     4    2    4 ar
     5    2   24 1
     6    3    5 ar
     7    3   25 1
     8    4    6 ar
     9    4   26 1
    10    5    6 ar
    11    5    7 1
    12    6   17 1
    13    7   18 am
    14    7   20 2
    15    8   16 1
    16    8   19 am
    17    8   21 2
    18    9   10 1
    19    9   13 1
    20    9   27 1
    21    9   28 1
    22   10   19 1
    23   10   29 1
    24   10   30 1
    25   11   12 1
    26   11   19 1
    27   11   31 1
    28   11   32 1
    29   12   13 1
    30   12   14 1
    31   12   33 1
    32   13   15 1
    33   13   22 1
    34   14   34 1
    35   14   35 1
    36   14   36 1
    37   15   37 1
    38   15   38 1
    39   15   39 1
    40   16   18 1
    41   16   40 1
    42   16   41 1
    43   17   18 1
    44   17   42 1
    45   22   43 1
