@<TRIPOS>MOLECULE
*****
   36    38     0     0     0
SMALL
NO_CHARGES

@<TRIPOS>ATOM
      1 C1          1.9796   -4.7991   -0.8191 C.1       1 <0>         0.0000
      2 C2          0.0893    0.1650    3.4635 C.1       1 <0>         0.0000
      3 C3         -7.8344    0.5336    3.1878 C.ar      1 <0>         0.0000
      4 C4         -8.5180    1.4684    3.9700 C.ar      1 <0>         0.0000
      5 C5          1.7286   -2.9601    0.8008 C.ar      1 <0>         0.0000
      6 C6         -0.2495   -3.9430   -0.2241 C.ar      1 <0>         0.0000
      7 C7         -6.4445    0.4808    3.2470 C.ar      1 <0>         0.0000
      8 C8          0.9278   -2.0836    1.5216 C.ar      1 <0>         0.0000
      9 C9         -1.0442   -3.0635    0.4998 C.ar      1 <0>         0.0000
     10 C10        -7.8022    2.3350    4.7985 C.ar      1 <0>         0.0000
     11 C11         1.1476   -3.8950   -0.0760 C.ar      1 <0>         0.0000
     12 C12        -5.7182    1.3526    4.0808 C.ar      1 <0>         0.0000
     13 C13        -0.4787   -2.1178    1.3852 C.ar      1 <0>         0.0000
     14 C14        -6.4023    2.3040    4.8780 C.ar      1 <0>         0.0000
     15 C15        -4.2532    1.2127    4.0680 C.2       1 <0>         0.0000
     16 C16        -2.3556    0.4613    3.5423 C.2       1 <0>         0.0000
     17 C17        -1.4093   -1.2490    2.0892 C.2       1 <0>         0.0000
     18 C18        -1.1996   -0.2513    2.9946 C.2       1 <0>         0.0000
     19 C19        -5.7024    3.2741    5.7975 C.3       1 <0>         0.0000
     20 N1          2.6527   -5.5339   -1.4232 N.1       1 <0>         0.0000
     21 N2          1.1372    0.5031    3.8444 N.1       1 <0>         0.0000
     22 N3         -3.6167    0.2688    3.2740 N.2       1 <0>         0.0000
     23 N4         -3.4148    1.9441    4.7852 N.2       1 <0>         0.0000
     24 O1         -2.1451    1.4442    4.4359 O.3       1 <0>         0.0000
     25 H1         -8.3784   -0.1470    2.5385 H         1 <0>         0.0000
     26 H2         -9.6031    1.5241    3.9368 H         1 <0>         0.0000
     27 H3          2.8079   -2.9276    0.9111 H         1 <0>         0.0000
     28 H4         -0.6967   -4.6643   -0.9005 H         1 <0>         0.0000
     29 H5         -5.8975   -0.2379    2.6471 H         1 <0>         0.0000
     30 H6          1.4024   -1.3757    2.1882 H         1 <0>         0.0000
     31 H7         -2.1239   -3.1031    0.3832 H         1 <0>         0.0000
     32 H8         -8.3417    3.0592    5.4038 H         1 <0>         0.0000
     33 H9         -2.4589   -1.4177    1.8594 H         1 <0>         0.0000
     34 H10        -5.1053    2.7536    6.5519 H         1 <0>         0.0000
     35 H11        -5.0056    3.9155    5.2503 H         1 <0>         0.0000
     36 H12        -6.4336    3.9071    6.3066 H         1 <0>         0.0000
@<TRIPOS>BOND
     1    1   11 1
     2    1   20 3
     3    2   18 1
     4    2   21 3
     5    3    4 ar
     6    3    7 ar
     7    3   25 1
     8    4   10 ar
     9    4   26 1
    10    5    8 ar
    11    5   11 ar
    12    5   27 1
    13    6    9 ar
    14    6   11 ar
    15    6   28 1
    16    7   12 ar
    17    7   29 1
    18    8   13 ar
    19    8   30 1
    20    9   13 ar
    21    9   31 1
    22   10   14 ar
    23   10   32 1
    24   12   14 ar
    25   12   15 1
    26   13   17 1
    27   14   19 1
    28   15   22 1
    29   15   23 2
    30   16   18 1
    31   16   22 2
    32   16   24 1
    33   17   18 2
    34   17   33 1
    35   19   34 1
    36   19   35 1
    37   19   36 1
    38   23   24 1
