@<TRIPOS>MOLECULE
*****
   21    21     0     0     0
SMALL
NO_CHARGES

@<TRIPOS>ATOM
      1 C1          1.8036   -1.5353   -0.2122 C.ar      1 <0>         0.0000
      2 C2          0.7478   -0.9922    0.5299 C.ar      1 <0>         0.0000
      3 C3          3.0242   -1.8273    0.4000 C.ar      1 <0>         0.0000
      4 C4          2.1224   -1.0232    2.5225 C.ar      1 <0>         0.0000
      5 C5          0.8979   -0.7349    1.8990 C.ar      1 <0>         0.0000
      6 C6          3.1515   -1.5614    1.7619 C.ar      1 <0>         0.0000
      7 C7          0.1410    1.2659    3.1859 C.2       1 <0>         0.0000
      8 C8         -0.2272   -0.1240    2.7136 C.3       1 <0>         0.0000
      9 N1          0.5323    1.5877    4.3698 N.2       1 <0>         0.0000
     10 N2          0.0079    2.2845    2.2384 N.pl3     1 <0>         0.0000
     11 O1          0.5392    0.4569    5.2442 O.3       1 <0>         0.0000
     12 F1          4.3341   -1.8420    2.3699 F         1 <0>         0.0000
     13 H1          1.6747   -1.7342   -1.2727 H         1 <0>         0.0000
     14 H2         -0.2005   -0.7776    0.0429 H         1 <0>         0.0000
     15 H3          3.8592   -2.2497   -0.1502 H         1 <0>         0.0000
     16 H4          2.2685   -0.8271    3.5809 H         1 <0>         0.0000
     17 H5         -1.1347   -0.0524    2.1077 H         1 <0>         0.0000
     18 H6         -0.4443   -0.7423    3.5856 H         1 <0>         0.0000
     19 H7          0.3279    2.0069    1.3146 H         1 <0>         0.0000
     20 H8          0.4503    3.1491    2.5380 H         1 <0>         0.0000
     21 H9          0.7807    0.8660    6.0900 H         1 <0>         0.0000
@<TRIPOS>BOND
     1    1    2 ar
     2    1    3 ar
     3    1   13 1
     4    2    5 ar
     5    2   14 1
     6    3    6 ar
     7    3   15 1
     8    4    5 ar
     9    4    6 ar
    10    4   16 1
    11    5    8 1
    12    6   12 1
    13    7    8 1
    14    7    9 2
    15    7   10 1
    16    8   17 1
    17    8   18 1
    18    9   11 1
    19   10   19 1
    20   10   20 1
    21   11   21 1
