@<TRIPOS>MOLECULE
*****
   47    50     0     0     0
SMALL
NO_CHARGES

@<TRIPOS>ATOM
      1 C1          8.1681   -3.1123    0.6848 C.1       1 <0>         0.0000
      2 C2          8.7055   -1.3539   -2.5390 C.ar      1 <0>         0.0000
      3 C3          7.3899   -1.1825   -2.9894 C.ar      1 <0>         0.0000
      4 C4          8.9276   -1.9933   -1.3236 C.ar      1 <0>         0.0000
      5 C5          6.3159   -1.6445   -2.2344 C.ar      1 <0>         0.0000
      6 C6          5.1419   -3.3576    0.9725 C.2       1 <0>         0.0000
      7 C7          3.7274   -3.5222    1.1113 C.2       1 <0>         0.0000
      8 C8          7.8484   -2.4644   -0.5536 C.ar      1 <0>         0.0000
      9 C9          6.5109   -2.2970   -0.9990 C.ar      1 <0>         0.0000
     10 C10         5.3511   -2.7579   -0.2497 C.2       1 <0>         0.0000
     11 C11         3.1552   -3.0224   -0.0273 C.2       1 <0>         0.0000
     12 C12         0.5709    1.1218   -1.1853 C.3       1 <0>         0.0000
     13 C13         0.1752    0.0302   -2.2155 C.3       1 <0>         0.0000
     14 C14        -0.8774    0.3084    0.7577 C.3       1 <0>         0.0000
     15 C15         1.4796   -0.6384    0.3771 C.3       1 <0>         0.0000
     16 C16        -1.1788   -1.5835   -0.7710 C.3       1 <0>         0.0000
     17 C17         0.5523    0.5830    0.2553 C.3       1 <0>         0.0000
     18 C18         0.1386   -1.3591   -1.5592 C.3       1 <0>         0.0000
     19 C19        -3.0737   -0.5694    0.3276 C.3       1 <0>         0.0000
     20 C20         1.7386   -2.9020   -0.4891 C.3       1 <0>         0.0000
     21 N1          8.4621   -3.6318    1.6866 N.1       1 <0>         0.0000
     22 N2         -1.7409   -0.3533   -0.2181 N.3       1 <0>         0.0000
     23 N3          1.3760   -1.5252   -0.7881 N.3       1 <0>         0.0000
     24 O1          4.1305   -2.5564   -0.8626 O.3       1 <0>         0.0000
     25 H1          9.5439   -0.9934   -3.1276 H         1 <0>         0.0000
     26 H2          7.2012   -0.6834   -3.9361 H         1 <0>         0.0000
     27 H3          9.9371   -2.1391   -0.9514 H         1 <0>         0.0000
     28 H4          5.3022   -1.5028   -2.5912 H         1 <0>         0.0000
     29 H5          5.8970   -3.6409    1.6895 H         1 <0>         0.0000
     30 H6          3.2008   -3.9518    1.9532 H         1 <0>         0.0000
     31 H7          1.5819    1.4844   -1.4006 H         1 <0>         0.0000
     32 H8         -0.1011    1.9821   -1.2641 H         1 <0>         0.0000
     33 H9         -0.8031    0.2494   -2.6505 H         1 <0>         0.0000
     34 H10         0.9077    0.0033   -3.0277 H         1 <0>         0.0000
     35 H11        -0.8167   -0.2664    1.7040 H         1 <0>         0.0000
     36 H12        -1.3515    1.2665    1.0035 H         1 <0>         0.0000
     37 H13         2.5203   -0.3028    0.4692 H         1 <0>         0.0000
     38 H14         1.2423   -1.1767    1.3115 H         1 <0>         0.0000
     39 H15        -1.9260   -1.9917   -1.4612 H         1 <0>         0.0000
     40 H16        -1.0192   -2.3555    0.0085 H         1 <0>         0.0000
     41 H17         0.9600    1.3490    0.9254 H         1 <0>         0.0000
     42 H18         0.1699   -2.1195   -2.3472 H         1 <0>         0.0000
     43 H19        -3.7315   -0.9790   -0.4460 H         1 <0>         0.0000
     44 H20        -3.4960    0.3845    0.6608 H         1 <0>         0.0000
     45 H21        -3.0833   -1.2649    1.1894 H         1 <0>         0.0000
     46 H22         1.6026   -3.4961   -1.4014 H         1 <0>         0.0000
     47 H23         1.1107   -3.3636    0.2960 H         1 <0>         0.0000
@<TRIPOS>BOND
     1    1    8 1
     2    1   21 3
     3    2    3 ar
     4    2    4 ar
     5    2   25 1
     6    3    5 ar
     7    3   26 1
     8    4    8 ar
     9    4   27 1
    10    5    9 ar
    11    5   28 1
    12    6    7 1
    13    6   10 2
    14    6   29 1
    15    7   11 2
    16    7   30 1
    17    8    9 ar
    18    9   10 1
    19   10   24 1
    20   11   20 1
    21   11   24 1
    22   12   13 1
    23   12   17 1
    24   12   31 1
    25   12   32 1
    26   13   18 1
    27   13   33 1
    28   13   34 1
    29   14   17 1
    30   14   22 1
    31   14   35 1
    32   14   36 1
    33   15   17 1
    34   15   23 1
    35   15   37 1
    36   15   38 1
    37   16   18 1
    38   16   22 1
    39   16   39 1
    40   16   40 1
    41   17   41 1
    42   18   23 1
    43   18   42 1
    44   19   22 1
    45   19   43 1
    46   19   44 1
    47   19   45 1
    48   20   23 1
    49   20   46 1
    50   20   47 1
