@<TRIPOS>MOLECULE
*****
   29    30     0     0     0
SMALL
NO_CHARGES

@<TRIPOS>ATOM
      1 C1          0.0963    1.2912   -5.7058 C.ar      1 <0>         0.0000
      2 C2         -1.5850    0.1265   -4.4610 C.ar      1 <0>         0.0000
      3 C3         -0.9211    1.7346   -6.5571 C.ar      1 <0>         0.0000
      4 C4         -2.5183    0.6140   -5.3727 C.ar      1 <0>         0.0000
      5 C5         -0.2295    0.4609   -4.6237 C.ar      1 <0>         0.0000
      6 C6          2.2316   -0.2263   -0.9966 C.ar      1 <0>         0.0000
      7 C7          3.1715   -0.8773   -0.1739 C.ar      1 <0>         0.0000
      8 C8          2.3209    1.1745   -1.0463 C.ar      1 <0>         0.0000
      9 C9          4.1493   -0.1926    0.5311 C.ar      1 <0>         0.0000
     10 C10         3.3253    1.8642   -0.3655 C.ar      1 <0>         0.0000
     11 C11         4.2515    1.1993    0.4354 C.ar      1 <0>         0.0000
     12 C12         0.8101   -0.0350   -3.6851 C.2       1 <0>         0.0000
     13 C13         2.2637    0.0817   -4.0675 C.3       1 <0>         0.0000
     14 N1         -2.2106    1.4086   -6.4126 N.ar      1 <0>         0.0000
     15 N2          0.3681   -0.5712   -2.5949 N.2       1 <0>         0.0000
     16 N3          1.3067   -1.0324   -1.6712 N.pl3     1 <0>         0.0000
     17 F1          3.1022   -2.2221   -0.0715 F         1 <0>         0.0000
     18 F2          1.4267    1.9040   -1.7425 F         1 <0>         0.0000
     19 F3          5.0070   -0.8877    1.2911 F         1 <0>         0.0000
     20 F4          3.3603    3.1999   -0.4766 F         1 <0>         0.0000
     21 Br1         5.5881    2.1476    1.3801 Br        1 <0>         0.0000
     22 H1          1.1165    1.6108   -5.8914 H         1 <0>         0.0000
     23 H2         -1.8934   -0.5039   -3.6348 H         1 <0>         0.0000
     24 H3         -0.6811    2.3850   -7.3970 H         1 <0>         0.0000
     25 H4         -3.5707    0.3561   -5.2654 H         1 <0>         0.0000
     26 H5          2.6590    1.0819   -3.8616 H         1 <0>         0.0000
     27 H6          2.8630   -0.6442   -3.5155 H         1 <0>         0.0000
     28 H7          2.3878   -0.1100   -5.1359 H         1 <0>         0.0000
     29 H8          0.8749   -1.7214   -1.0645 H         1 <0>         0.0000
@<TRIPOS>BOND
     1    1    3 ar
     2    1    5 ar
     3    1   22 1
     4    2    4 ar
     5    2    5 ar
     6    2   23 1
     7    3   14 ar
     8    3   24 1
     9    4   14 ar
    10    4   25 1
    11    5   12 1
    12    6    7 ar
    13    6    8 ar
    14    6   16 1
    15    7    9 ar
    16    7   17 1
    17    8   10 ar
    18    8   18 1
    19    9   11 ar
    20    9   19 1
    21   10   11 ar
    22   10   20 1
    23   11   21 1
    24   12   13 1
    25   12   15 2
    26   13   26 1
    27   13   27 1
    28   13   28 1
    29   15   16 1
    30   16   29 1
