@<TRIPOS>MOLECULE
*****
   18    18     0     0     0
SMALL
NO_CHARGES

@<TRIPOS>ATOM
      1 C1         -2.9293   -2.7310    0.6685 C.ar      1 <0>         0.0000
      2 C2         -2.0593   -1.8146    1.2649 C.ar      1 <0>         0.0000
      3 C3         -4.2205   -2.9168    1.1681 C.ar      1 <0>         0.0000
      4 C4         -3.7725   -1.2517    2.8900 C.ar      1 <0>         0.0000
      5 C5         -2.4761   -1.0697    2.3790 C.ar      1 <0>         0.0000
      6 C6         -4.6211   -2.1689    2.2790 C.ar      1 <0>         0.0000
      7 C7         -1.5642   -0.0881    3.0151 C.2       1 <0>         0.0000
      8 N1         -1.7359    0.1621    4.2744 N.2       1 <0>         0.0000
      9 N2         -0.5456    0.4507    2.2427 N.pl3     1 <0>         0.0000
     10 O1         -0.7996    1.1486    4.7017 O.3       1 <0>         0.0000
     11 Br1        -6.3979   -2.4018    2.9685 Br        1 <0>         0.0000
     12 H1         -2.5995   -3.3122   -0.1884 H         1 <0>         0.0000
     13 H2         -1.0477   -1.7031    0.8869 H         1 <0>         0.0000
     14 H3         -4.9003   -3.6252    0.7063 H         1 <0>         0.0000
     15 H4         -4.0946   -0.6733    3.7480 H         1 <0>         0.0000
     16 H5         -0.7898    0.6293    1.2759 H         1 <0>         0.0000
     17 H6         -0.0714    1.2281    2.6902 H         1 <0>         0.0000
     18 H7         -1.0121    1.2396    5.6435 H         1 <0>         0.0000
@<TRIPOS>BOND
     1    1    2 ar
     2    1    3 ar
     3    1   12 1
     4    2    5 ar
     5    2   13 1
     6    3    6 ar
     7    3   14 1
     8    4    5 ar
     9    4    6 ar
    10    4   15 1
    11    5    7 1
    12    6   11 1
    13    7    8 2
    14    7    9 1
    15    8   10 1
    16    9   16 1
    17    9   17 1
    18   10   18 1
