@<TRIPOS>MOLECULE
*****
   39    42     0     0     0
SMALL
NO_CHARGES

@<TRIPOS>ATOM
      1 C1         -0.0653   -5.8674   -0.6875 C.ar      1 <0>         0.0000
      2 C2         -0.9628    2.7313    2.4022 C.ar      1 <0>         0.0000
      3 C3         -0.1571   -4.9413   -1.7057 C.ar      1 <0>         0.0000
      4 C4         -0.0566    2.3358    1.4202 C.ar      1 <0>         0.0000
      5 C5          0.7597   -5.6218    0.4360 C.ar      1 <0>         0.0000
      6 C6          1.2979   -1.5735   -2.4932 C.ar      1 <0>         0.0000
      7 C7         -1.4506    4.0431    2.3815 C.ar      1 <0>         0.0000
      8 C8         -0.2163    4.5492    0.5234 C.ar      1 <0>         0.0000
      9 C9          0.5746   -3.7251   -1.6413 C.ar      1 <0>         0.0000
     10 C10         0.3379    3.2640    0.4436 C.ar      1 <0>         0.0000
     11 C11         1.4145   -3.4517   -0.5128 C.ar      1 <0>         0.0000
     12 C12         0.5443   -2.7177   -2.6540 C.ar      1 <0>         0.0000
     13 C13         1.4700   -4.4479    0.5045 C.ar      1 <0>         0.0000
     14 C14         2.0789   -1.4107   -1.3231 C.ar      1 <0>         0.0000
     15 C15         1.0118    1.5829   -1.4035 C.3       1 <0>         0.0000
     16 C16         2.6136    2.1990   -0.1823 C.3       1 <0>         0.0000
     17 C17         1.3096    2.9133   -0.6496 C.3       1 <0>         0.0000
     18 C18         2.8558   -0.1280   -1.1114 C.3       1 <0>         0.0000
     19 N1         -1.0895    4.9459    1.4607 N.ar      1 <0>         0.0000
     20 N2          2.1458   -2.3178   -0.3611 N.ar      1 <0>         0.0000
     21 N3          2.0003    0.9017   -0.5393 N.3       1 <0>         0.0000
     22 O1         -0.2004   -2.8381   -3.7888 O.3       1 <0>         0.0000
     23 F1          2.2537   -4.2186    1.5751 F         1 <0>         0.0000
     24 H1         -0.6275   -6.7950   -0.7411 H         1 <0>         0.0000
     25 H2         -1.2899    2.0399    3.1741 H         1 <0>         0.0000
     26 H3         -0.8028   -5.1675   -2.5520 H         1 <0>         0.0000
     27 H4          0.3474    1.3262    1.3987 H         1 <0>         0.0000
     28 H5          0.8417   -6.3417    1.2445 H         1 <0>         0.0000
     29 H6          1.2842   -0.8119   -3.2662 H         1 <0>         0.0000
     30 H7         -2.1601    4.3815    3.1355 H         1 <0>         0.0000
     31 H8          0.0616    5.3028   -0.2144 H         1 <0>         0.0000
     32 H9         -0.0064    1.1850   -1.3464 H         1 <0>         0.0000
     33 H10         1.3238    1.6381   -2.4603 H         1 <0>         0.0000
     34 H11         3.4737    2.4644   -0.8187 H         1 <0>         0.0000
     35 H12         2.8944    2.2972    0.8718 H         1 <0>         0.0000
     36 H13         1.4706    3.7770   -1.2978 H         1 <0>         0.0000
     37 H14         3.6619   -0.3330   -0.4025 H         1 <0>         0.0000
     38 H15         3.3062    0.2045   -2.0667 H         1 <0>         0.0000
     39 H16        -0.6741   -3.6842   -3.7898 H         1 <0>         0.0000
@<TRIPOS>BOND
     1    1    3 ar
     2    1    5 ar
     3    1   24 1
     4    2    4 ar
     5    2    7 ar
     6    2   25 1
     7    3    9 ar
     8    3   26 1
     9    4   10 ar
    10    4   27 1
    11    5   13 ar
    12    5   28 1
    13    6   12 ar
    14    6   14 ar
    15    6   29 1
    16    7   19 ar
    17    7   30 1
    18    8   10 ar
    19    8   19 ar
    20    8   31 1
    21    9   11 ar
    22    9   12 ar
    23   10   17 1
    24   11   13 ar
    25   11   20 ar
    26   12   22 1
    27   13   23 1
    28   14   18 1
    29   14   20 ar
    30   15   17 1
    31   15   21 1
    32   15   32 1
    33   15   33 1
    34   16   17 1
    35   16   21 1
    36   16   34 1
    37   16   35 1
    38   17   36 1
    39   18   21 1
    40   18   37 1
    41   18   38 1
    42   22   39 1
