@<TRIPOS>MOLECULE
*****
   17    17     0     0     0
SMALL
NO_CHARGES

@<TRIPOS>ATOM
      1 C1          5.7020    1.4100    0.6390 C.ar      1 <0>         0.0000
      2 C2          4.5440    1.3340    1.3920 C.ar      1 <0>         0.0000
      3 C3          5.7690    0.7130   -0.5540 C.ar      1 <0>         0.0000
      4 C4          3.6130   -0.0710   -0.2080 C.ar      1 <0>         0.0000
      5 C5          2.4430   -0.8880   -0.6590 C.2       1 <0>         0.0000
      6 C6          0.1200   -1.7200   -0.2100 C.3       1 <0>         0.0000
      7 N1          3.5260    0.6060    0.9680 N.ar      1 <0>         0.0000
      8 N2          4.7390   -0.0070   -0.9560 N.ar      1 <0>         0.0000
      9 N3          1.3090   -0.9340    0.1340 N.am      1 <0>         0.0000
     10 O1          2.4000   -1.5430   -1.7040 O.2       1 <0>         0.0000
     11 H1          6.5230    1.9900    0.9700 H         1 <0>         0.0000
     12 H2          4.4550    1.8540    2.3130 H         1 <0>         0.0000
     13 H3          6.6400    0.7440   -1.1610 H         1 <0>         0.0000
     14 H4         -0.6400   -1.5640    0.5570 H         1 <0>         0.0000
     15 H5          0.4040   -2.7720   -0.2600 H         1 <0>         0.0000
     16 H6         -0.2450   -1.3850   -1.1830 H         1 <0>         0.0000
     17 H7          1.3380   -0.3980    1.0160 H         1 <0>         0.0000
@<TRIPOS>BOND
     1    1    2 ar
     2    1    3 ar
     3    1   11 1
     4    2    7 ar
     5    2   12 1
     6    3    8 ar
     7    3   13 1
     8    4    5 1
     9    4    7 ar
    10    4    8 ar
    11    5    9 am
    12    5   10 2
    13    6    9 1
    14    6   14 1
    15    6   15 1
    16    6   16 1
    17    9   17 1
