@<TRIPOS>MOLECULE
*****
   36    39     0     0     0
SMALL
NO_CHARGES

@<TRIPOS>ATOM
      1 C1          5.9089   -7.8407    4.0790 C.ar      1 <0>         0.0000
      2 C2          5.5559   -8.1770    2.7662 C.ar      1 <0>         0.0000
      3 C3          5.4625   -6.6335    4.6275 C.ar      1 <0>         0.0000
      4 C4          4.7642   -7.3171    2.0070 C.ar      1 <0>         0.0000
      5 C5          4.6699   -5.7695    3.8713 C.ar      1 <0>         0.0000
      6 C6          2.3616   -4.4866   -0.0392 C.2       1 <0>         0.0000
      7 C7          4.3110   -6.1006    2.5524 C.ar      1 <0>         0.0000
      8 C8          2.0793   -3.4266    0.7958 C.2       1 <0>         0.0000
      9 C9          0.2670   -0.3449    0.7851 C.2       1 <0>         0.0000
     10 C10         0.0485   -0.7300   -0.5351 C.2       1 <0>         0.0000
     11 C11         1.2978   -2.2350    0.5512 C.2       1 <0>         0.0000
     12 C12         3.4789   -5.2151    1.7299 C.2       1 <0>         0.0000
     13 C13        -0.1525    0.8702    1.5406 C.2       1 <0>         0.0000
     14 C14        -0.7078   -0.1613   -1.6974 C.3       1 <0>         0.0000
     15 C15        -1.2172    1.2662   -1.4820 C.3       1 <0>         0.0000
     16 C16        -1.9787    1.4368   -0.1602 C.3       1 <0>         0.0000
     17 N1          3.1409   -5.4784    0.4854 N.2       1 <0>         0.0000
     18 N2          1.0429   -1.2894    1.4330 N.2       1 <0>         0.0000
     19 N3          0.7111   -1.9350   -0.6632 N.pl3     1 <0>         0.0000
     20 N4         -1.1076    1.6916    0.9809 N.am      1 <0>         0.0000
     21 O1          0.3498    1.1542    2.6258 O.2       1 <0>         0.0000
     22 S1          2.8384   -3.6914    2.3387 S.3       1 <0>         0.0000
     23 H1          6.5264   -8.5129    4.6689 H         1 <0>         0.0000
     24 H2          5.8995   -9.1135    2.3344 H         1 <0>         0.0000
     25 H3          5.7322   -6.3640    5.6451 H         1 <0>         0.0000
     26 H4          4.4847   -7.5677    0.9891 H         1 <0>         0.0000
     27 H5          4.3336   -4.8350    4.3135 H         1 <0>         0.0000
     28 H6          2.0107   -4.5855   -1.0625 H         1 <0>         0.0000
     29 H7         -0.0736   -0.1871   -2.5930 H         1 <0>         0.0000
     30 H8         -1.5643   -0.8162   -1.9112 H         1 <0>         0.0000
     31 H9         -0.3857    1.9778   -1.4998 H         1 <0>         0.0000
     32 H10        -1.8806    1.5185   -2.3163 H         1 <0>         0.0000
     33 H11        -2.6417    2.3022   -0.2363 H         1 <0>         0.0000
     34 H12        -2.6190    0.5604    0.0172 H         1 <0>         0.0000
     35 H13         0.7751   -2.4780   -1.5152 H         1 <0>         0.0000
     36 H14        -1.3522    2.4565    1.5983 H         1 <0>         0.0000
@<TRIPOS>BOND
     1    1    3 ar
     2    1    2 ar
     3    1   23 1
     4    2    4 ar
     5    2   24 1
     6    3    5 ar
     7    3   25 1
     8    4    7 ar
     9    4   26 1
    10    5    7 ar
    11    5   27 1
    12    6    8 2
    13    6   17 1
    14    6   28 1
    15    7   12 1
    16    8   11 1
    17    8   22 1
    18    9   10 2
    19    9   13 1
    20    9   18 1
    21   10   14 1
    22   10   19 1
    23   11   18 2
    24   11   19 1
    25   12   17 2
    26   12   22 1
    27   13   20 am
    28   13   21 2
    29   14   15 1
    30   14   29 1
    31   14   30 1
    32   15   16 1
    33   15   31 1
    34   15   32 1
    35   16   20 1
    36   16   33 1
    37   16   34 1
    38   19   35 1
    39   20   36 1
