@<TRIPOS>MOLECULE
*****
   40    41     0     0     0
SMALL
NO_CHARGES

@<TRIPOS>ATOM
      1 C1          3.4953   -1.1336    1.6048 C.ar      1 <0>         0.0000
      2 C2          3.2190    0.2355    1.5381 C.ar      1 <0>         0.0000
      3 C3          2.7158   -2.0283    0.8626 C.ar      1 <0>         0.0000
      4 C4          2.1725    0.7026    0.7362 C.ar      1 <0>         0.0000
      5 C5          1.6718   -1.5559    0.0642 C.ar      1 <0>         0.0000
      6 C6         -5.6349   -1.5084    0.1133 C.ar      1 <0>         0.0000
      7 C7         -5.2703    0.1808    1.8558 C.ar      1 <0>         0.0000
      8 C8         -4.6117   -0.9588   -0.6294 C.ar      1 <0>         0.0000
      9 C9         -4.2484    0.7267    1.1090 C.ar      1 <0>         0.0000
     10 C10         1.3836   -0.1838   -0.0097 C.ar      1 <0>         0.0000
     11 C11        -6.0338   -0.9801    1.4126 C.ar      1 <0>         0.0000
     12 C12        -3.9042    0.1700   -0.1476 C.ar      1 <0>         0.0000
     13 C13         1.7880    0.4471   -2.9081 C.2       1 <0>         0.0000
     14 C14         3.3274    2.2371   -3.0004 C.3       1 <0>         0.0000
     15 C15         0.4600   -0.0164   -2.3618 C.3       1 <0>         0.0000
     16 C16        -1.1018   -0.1764   -0.3502 C.3       1 <0>         0.0000
     17 C17         0.2488    0.3393   -0.8738 C.3       1 <0>         0.0000
     18 O1         -6.9662   -1.4852    2.0977 O.3       1 <0>         0.0000
     19 O2          2.5368   -0.2123   -3.6075 O.2       1 <0>         0.0000
     20 O3         -2.6219    0.4030   -2.4538 O.2       1 <0>         0.0000
     21 O4         -2.2448    2.1811   -0.6530 O.2       1 <0>         0.0000
     22 O5          2.0645    1.7273   -2.5446 O.3       1 <0>         0.0000
     23 S1         -2.5297    0.7704   -1.0164 S.o2      1 <0>         0.0000
     24 H1          4.3079   -1.5004    2.2275 H         1 <0>         0.0000
     25 H2          3.8179    0.9406    2.1104 H         1 <0>         0.0000
     26 H3          2.9218   -3.0953    0.9063 H         1 <0>         0.0000
     27 H4          1.9620    1.7681    0.6829 H         1 <0>         0.0000
     28 H5          1.0766   -2.2634   -0.5080 H         1 <0>         0.0000
     29 H6         -6.1905   -2.3654   -0.2623 H         1 <0>         0.0000
     30 H7         -5.5470    0.6164    2.8139 H         1 <0>         0.0000
     31 H8         -4.3473   -1.3690   -1.6017 H         1 <0>         0.0000
     32 H9         -3.7068    1.6016    1.4627 H         1 <0>         0.0000
     33 H10         3.3833    3.2590   -2.6233 H         1 <0>         0.0000
     34 H11         3.3762    2.2279   -4.0925 H         1 <0>         0.0000
     35 H12         4.1478    1.6350   -2.6007 H         1 <0>         0.0000
     36 H13         0.4067   -1.0948   -2.5253 H         1 <0>         0.0000
     37 H14        -0.3434    0.4362   -2.9521 H         1 <0>         0.0000
     38 H15        -1.2824   -1.2261   -0.5979 H         1 <0>         0.0000
     39 H16        -1.1607   -0.0581    0.7345 H         1 <0>         0.0000
     40 H17         0.2317    1.4279   -0.7861 H         1 <0>         0.0000
@<TRIPOS>BOND
     1    1    3 ar
     2    1    2 ar
     3    1   24 1
     4    2    4 ar
     5    2   25 1
     6    3    5 ar
     7    3   26 1
     8    4   10 ar
     9    4   27 1
    10    5   10 ar
    11    5   28 1
    12    6    8 ar
    13    6   11 ar
    14    6   29 1
    15    7    9 ar
    16    7   11 ar
    17    7   30 1
    18    8   12 ar
    19    8   31 1
    20    9   12 ar
    21    9   32 1
    22   10   17 1
    23   11   18 1
    24   12   23 1
    25   13   15 1
    26   13   19 2
    27   13   22 1
    28   14   22 1
    29   14   33 1
    30   14   34 1
    31   14   35 1
    32   15   17 1
    33   15   36 1
    34   15   37 1
    35   16   17 1
    36   16   23 1
    37   16   38 1
    38   16   39 1
    39   17   40 1
    40   20   23 2
    41   21   23 2
