@<TRIPOS>MOLECULE
*****
   42    44     0     0     0
SMALL
NO_CHARGES

@<TRIPOS>ATOM
      1 C1          4.0361    2.5870   -3.5790 C.ar      1 <0>         0.0000
      2 C2          6.1641    1.5870   -3.1071 C.ar      1 <0>         0.0000
      3 C3          6.9181    2.4667   -5.9153 C.ar      1 <0>         0.0000
      4 C4          5.5823    4.4190   -5.4431 C.ar      1 <0>         0.0000
      5 C5          3.4865    1.9418   -2.4668 C.ar      1 <0>         0.0000
      6 C6          5.6120    0.9456   -2.0029 C.ar      1 <0>         0.0000
      7 C7          7.4703    3.1011   -7.0297 C.ar      1 <0>         0.0000
      8 C8          6.1219    5.0702   -6.5540 C.ar      1 <0>         0.0000
      9 C9          5.3846    2.4261   -3.9240 C.ar      1 <0>         0.0000
     10 C10         5.9668    3.1097   -5.1033 C.ar      1 <0>         0.0000
     11 C11         4.2589    1.1048   -1.6494 C.ar      1 <0>         0.0000
     12 C12         7.0595    4.3960   -7.3296 C.ar      1 <0>         0.0000
     13 C13         0.6966   -0.8455    0.8587 C.2       1 <0>         0.0000
     14 C14         5.3040   -0.7628    1.1356 C.3       1 <0>         0.0000
     15 C15         4.2907   -1.8056    0.6402 C.3       1 <0>         0.0000
     16 C16         4.6299    0.5879    0.8266 C.3       1 <0>         0.0000
     17 C17         3.7507   -1.1904   -0.6607 C.3       1 <0>         0.0000
     18 C18         3.7114    0.3615   -0.4293 C.3       1 <0>         0.0000
     19 C19         2.2652    0.8162   -0.1266 C.3       1 <0>         0.0000
     20 N1          1.6433    0.1259    0.9997 N.am      1 <0>         0.0000
     21 O1          0.2859   -1.2890   -0.2069 O.2       1 <0>         0.0000
     22 F1          7.5902    5.0214   -8.4132 F         1 <0>         0.0000
     23 H1          3.3919    3.2013   -4.2028 H         1 <0>         0.0000
     24 H2          7.2213    1.4570   -3.3235 H         1 <0>         0.0000
     25 H3          7.2115    1.4452   -5.6913 H         1 <0>         0.0000
     26 H4          4.8704    4.9482   -4.8163 H         1 <0>         0.0000
     27 H5          2.4334    2.1002   -2.2631 H         1 <0>         0.0000
     28 H6          6.2543    0.3110   -1.3982 H         1 <0>         0.0000
     29 H7          8.1968    2.6044   -7.6656 H         1 <0>         0.0000
     30 H8          5.8346    6.0843   -6.8144 H         1 <0>         0.0000
     31 H9          0.3244   -1.2069    1.8366 H         1 <0>         0.0000
     32 H10         5.5587   -0.8734    2.1947 H         1 <0>         0.0000
     33 H11         6.2382   -0.8589    0.5692 H         1 <0>         0.0000
     34 H12         4.7363   -2.7930    0.4831 H         1 <0>         0.0000
     35 H13         3.4834   -1.9229    1.3711 H         1 <0>         0.0000
     36 H14         4.0221    0.8942    1.6856 H         1 <0>         0.0000
     37 H15         5.3502    1.3925    0.6625 H         1 <0>         0.0000
     38 H16         4.4373   -1.4155   -1.4816 H         1 <0>         0.0000
     39 H17         2.7698   -1.5779   -0.9460 H         1 <0>         0.0000
     40 H18         1.6201    0.6187   -0.9835 H         1 <0>         0.0000
     41 H19         2.2458    1.8929    0.0765 H         1 <0>         0.0000
     42 H20         1.8844    0.4024    1.9420 H         1 <0>         0.0000
@<TRIPOS>BOND
     1    1    5 ar
     2    1    9 ar
     3    1   23 1
     4    2    6 ar
     5    2    9 ar
     6    2   24 1
     7    3    7 ar
     8    3   10 ar
     9    3   25 1
    10    4    8 ar
    11    4   10 ar
    12    4   26 1
    13    5   11 ar
    14    5   27 1
    15    6   11 ar
    16    6   28 1
    17    7   12 ar
    18    7   29 1
    19    8   12 ar
    20    8   30 1
    21    9   10 1
    22   11   18 1
    23   12   22 1
    24   13   20 am
    25   13   21 2
    26   13   31 1
    27   14   15 1
    28   14   16 1
    29   14   32 1
    30   14   33 1
    31   15   17 1
    32   15   34 1
    33   15   35 1
    34   16   18 1
    35   16   36 1
    36   16   37 1
    37   17   18 1
    38   17   38 1
    39   17   39 1
    40   18   19 1
    41   19   20 1
    42   19   40 1
    43   19   41 1
    44   20   42 1
