@<TRIPOS>MOLECULE
*****
   42    44     0     0     0
SMALL
NO_CHARGES

@<TRIPOS>ATOM
      1 C1         -5.5253   -0.4812   -0.5086 C.ar      1 <0>         0.0000
      2 C2         -5.5707   -0.4033   -2.9065 C.ar      1 <0>         0.0000
      3 C3         -8.3484    0.7769   -2.5689 C.ar      1 <0>         0.0000
      4 C4         -8.5445   -0.7539   -0.7136 C.ar      1 <0>         0.0000
      5 C5         -4.1493   -0.6945   -0.5470 C.ar      1 <0>         0.0000
      6 C6         -4.1905   -0.6199   -2.9388 C.ar      1 <0>         0.0000
      7 C7         -9.7268    0.9969   -2.5471 C.ar      1 <0>         0.0000
      8 C8         -9.9246   -0.5469   -0.6759 C.ar      1 <0>         0.0000
      9 C9         -6.2690   -0.3290   -1.6923 C.ar      1 <0>         0.0000
     10 C10        -7.7331   -0.0998   -1.6576 C.ar      1 <0>         0.0000
     11 C11        -3.4440   -0.7679   -1.7621 C.ar      1 <0>         0.0000
     12 C12       -10.4921    0.3274   -1.5975 C.ar      1 <0>         0.0000
     13 C13        -1.6398   -4.3137   -2.7413 C.2       1 <0>         0.0000
     14 C14        -1.1584    1.2671   -1.9354 C.3       1 <0>         0.0000
     15 C15        -1.0943    0.6302   -3.3535 C.3       1 <0>         0.0000
     16 C16        -1.1983    0.0761   -0.9586 C.3       1 <0>         0.0000
     17 C17        -1.2609   -0.8917   -3.1301 C.3       1 <0>         0.0000
     18 C18        -1.9349   -1.0368   -1.7468 C.3       1 <0>         0.0000
     19 C19        -1.6734   -2.4265   -1.1294 C.3       1 <0>         0.0000
     20 N1         -2.3103   -3.5106   -1.8678 N.am      1 <0>         0.0000
     21 O1         -0.4321   -4.2878   -2.9501 O.2       1 <0>         0.0000
     22 F1        -11.8343    0.5338   -1.5692 F         1 <0>         0.0000
     23 H1         -6.0244   -0.4020    0.4536 H         1 <0>         0.0000
     24 H2         -6.1145   -0.3192   -3.8438 H         1 <0>         0.0000
     25 H3         -7.7397    1.3166   -3.2886 H         1 <0>         0.0000
     26 H4         -8.0975   -1.4558   -0.0153 H         1 <0>         0.0000
     27 H5         -3.6145   -0.7939    0.3942 H         1 <0>         0.0000
     28 H6         -3.7021   -0.6782   -3.9052 H         1 <0>         0.0000
     29 H7        -10.2053    1.6804   -3.2418 H         1 <0>         0.0000
     30 H8        -10.5573   -1.0575    0.0437 H         1 <0>         0.0000
     31 H9         -2.3157   -5.0270   -3.2511 H         1 <0>         0.0000
     32 H10        -0.3132    1.9314   -1.7336 H         1 <0>         0.0000
     33 H11        -2.0698    1.8632   -1.8281 H         1 <0>         0.0000
     34 H12        -1.8897    1.0306   -3.9889 H         1 <0>         0.0000
     35 H13        -0.1481    0.8473   -3.8575 H         1 <0>         0.0000
     36 H14        -0.1804   -0.2688   -0.7376 H         1 <0>         0.0000
     37 H15        -1.6733    0.3244   -0.0057 H         1 <0>         0.0000
     38 H16        -1.7933   -1.3972   -3.9385 H         1 <0>         0.0000
     39 H17        -0.2802   -1.3730   -3.0734 H         1 <0>         0.0000
     40 H18        -2.0256   -2.4570   -0.0931 H         1 <0>         0.0000
     41 H19        -0.6017   -2.6334   -1.1260 H         1 <0>         0.0000
     42 H20        -3.3219   -3.5605   -1.8621 H         1 <0>         0.0000
@<TRIPOS>BOND
     1    1    5 ar
     2    1    9 ar
     3    1   23 1
     4    2    6 ar
     5    2    9 ar
     6    2   24 1
     7    3    7 ar
     8    3   10 ar
     9    3   25 1
    10    4    8 ar
    11    4   10 ar
    12    4   26 1
    13    5   11 ar
    14    5   27 1
    15    6   11 ar
    16    6   28 1
    17    7   12 ar
    18    7   29 1
    19    8   12 ar
    20    8   30 1
    21    9   10 1
    22   11   18 1
    23   12   22 1
    24   13   20 am
    25   13   21 2
    26   13   31 1
    27   14   15 1
    28   14   16 1
    29   14   32 1
    30   14   33 1
    31   15   17 1
    32   15   34 1
    33   15   35 1
    34   16   18 1
    35   16   36 1
    36   16   37 1
    37   17   18 1
    38   17   38 1
    39   17   39 1
    40   18   19 1
    41   19   20 1
    42   19   40 1
    43   19   41 1
    44   20   42 1
