@<TRIPOS>MOLECULE
*****
   33    35     0     0     0
SMALL
NO_CHARGES

@<TRIPOS>ATOM
      1 C1         -1.3429    3.9882   -2.1713 C.ar      1 <0>         0.0000
      2 C2         -1.0750    4.1182    0.2140 C.ar      1 <0>         0.0000
      3 C3         -0.0521    3.4565   -2.2572 C.ar      1 <0>         0.0000
      4 C4         -1.8592    4.3191   -0.9221 C.ar      1 <0>         0.0000
      5 C5          0.6776    3.2892   -1.0595 C.ar      1 <0>         0.0000
      6 C6          0.6200   -0.2087   -5.5214 C.3       1 <0>         0.0000
      7 C7          1.8519    0.6667   -5.4029 C.3       1 <0>         0.0000
      8 C8          2.4594    1.7034   -0.0861 C.3       1 <0>         0.0000
      9 C9          2.4221    1.4207   -1.5734 C.3       1 <0>         0.0000
     10 C10         0.4730    1.2703   -5.2618 C.3       1 <0>         0.0000
     11 C11         2.1040    2.8078   -1.0505 C.3       1 <0>         0.0000
     12 C12         3.1167    3.9255   -1.2596 C.3       1 <0>         0.0000
     13 C13         0.4760    3.0524   -3.6154 C.3       1 <0>         0.0000
     14 N1          0.1627    3.6219    0.1371 N.ar      1 <0>         0.0000
     15 N2          0.0634    1.6779   -3.9400 N.3       1 <0>         0.0000
     16 Br1        -3.6202    5.0555   -0.7581 Br        1 <0>         0.0000
     17 H1         -1.9322    4.1469   -3.0710 H         1 <0>         0.0000
     18 H2         -1.4513    4.3675    1.2041 H         1 <0>         0.0000
     19 H3          0.3446   -0.5867   -6.5016 H         1 <0>         0.0000
     20 H4          0.4013   -0.8725   -4.6909 H         1 <0>         0.0000
     21 H5          2.4383    0.5770   -4.4945 H         1 <0>         0.0000
     22 H6          2.4194    0.8874   -6.3022 H         1 <0>         0.0000
     23 H7          1.6625    1.3027    0.5321 H         1 <0>         0.0000
     24 H8          3.4267    1.7599    0.4057 H         1 <0>         0.0000
     25 H9          3.3669    1.2912   -2.0963 H         1 <0>         0.0000
     26 H10         1.6018    0.8306   -1.9684 H         1 <0>         0.0000
     27 H11         0.1306    1.8836   -6.1020 H         1 <0>         0.0000
     28 H12         4.1381    3.5312   -1.2409 H         1 <0>         0.0000
     29 H13         3.0258    4.6766   -0.4676 H         1 <0>         0.0000
     30 H14         2.9683    4.4297   -2.2219 H         1 <0>         0.0000
     31 H15         0.1241    3.7807   -4.3672 H         1 <0>         0.0000
     32 H16         1.5668    3.0810   -3.6308 H         1 <0>         0.0000
     33 H17        -0.9483    1.5959   -3.8504 H         1 <0>         0.0000
@<TRIPOS>BOND
     1    1    3 ar
     2    1    4 ar
     3    1   17 1
     4    2    4 ar
     5    2   14 ar
     6    2   18 1
     7    3    5 ar
     8    3   13 1
     9    4   16 1
    10    5   11 1
    11    5   14 ar
    12    6    7 1
    13    6   10 1
    14    6   19 1
    15    6   20 1
    16    7   10 1
    17    7   21 1
    18    7   22 1
    19    8    9 1
    20    8   11 1
    21    8   23 1
    22    8   24 1
    23    9   11 1
    24    9   25 1
    25    9   26 1
    26   10   15 1
    27   10   27 1
    28   11   12 1
    29   12   28 1
    30   12   29 1
    31   12   30 1
    32   13   15 1
    33   13   31 1
    34   13   32 1
    35   15   33 1
