@<TRIPOS>MOLECULE
*****
   51    54     0     0     0
SMALL
NO_CHARGES

@<TRIPOS>ATOM
      1 C1          5.2221   -2.9720    2.8461 C.ar      1 <0>         0.0000
      2 C2          4.1987   -3.8626    2.4961 C.ar      1 <0>         0.0000
      3 C3          5.6422   -2.0079    1.9261 C.ar      1 <0>         0.0000
      4 C4          3.6034   -3.7881    1.2356 C.ar      1 <0>         0.0000
      5 C5          5.0398   -1.9349    0.6641 C.ar      1 <0>         0.0000
      6 C6         -0.7139   -2.9971    0.1576 C.ar      1 <0>         0.0000
      7 C7         -2.9408   -2.0334    0.1722 C.ar      1 <0>         0.0000
      8 C8         -0.1618   -1.7369   -0.1117 C.ar      1 <0>         0.0000
      9 C9          4.0199   -2.8236    0.3049 C.ar      1 <0>         0.0000
     10 C10        -2.4145   -0.7681   -0.0892 C.ar      1 <0>         0.0000
     11 C11        -1.0182   -0.6317   -0.2271 C.ar      1 <0>         0.0000
     12 C12        -2.0888   -3.1342    0.2970 C.ar      1 <0>         0.0000
     13 C13         0.5854    3.5786    1.0461 C.3       1 <0>         0.0000
     14 C14         0.2971    3.4130   -0.4517 C.3       1 <0>         0.0000
     15 C15         0.3085    2.2744    1.8044 C.3       1 <0>         0.0000
     16 C16         1.0851    2.2364   -1.0421 C.3       1 <0>         0.0000
     17 C17         1.0915    1.0956    1.2116 C.3       1 <0>         0.0000
     18 C18         1.6608   -0.2170   -0.9048 C.3       1 <0>         0.0000
     19 C19         1.3404   -1.5752   -0.2594 C.3       1 <0>         0.0000
     20 C20         0.8365    0.9191   -0.2978 C.3       1 <0>         0.0000
     21 C21        -3.3002    0.4448   -0.2259 C.3       1 <0>         0.0000
     22 C22         3.3665   -2.7488   -1.0610 C.3       1 <0>         0.0000
     23 N1          1.9026   -2.7395   -0.9566 N.3       1 <0>         0.0000
     24 O1         -0.5757    0.6355   -0.5051 O.3       1 <0>         0.0000
     25 Cl1        -2.7764   -4.7229    0.6351 Cl        1 <0>         0.0000
     26 H1          5.6844   -3.0291    3.8282 H         1 <0>         0.0000
     27 H2          3.8651   -4.6133    3.2083 H         1 <0>         0.0000
     28 H3          6.4330   -1.3102    2.1902 H         1 <0>         0.0000
     29 H4          2.7983   -4.4662    0.9653 H         1 <0>         0.0000
     30 H5          5.3661   -1.1776   -0.0463 H         1 <0>         0.0000
     31 H6         -0.0544   -3.8537    0.2377 H         1 <0>         0.0000
     32 H7         -4.0134   -2.1620    0.2829 H         1 <0>         0.0000
     33 H8         -0.0182    4.3941    1.4612 H         1 <0>         0.0000
     34 H9          1.6381    3.8636    1.1852 H         1 <0>         0.0000
     35 H10        -0.7740    3.2372   -0.6013 H         1 <0>         0.0000
     36 H11         0.5492    4.3312   -0.9947 H         1 <0>         0.0000
     37 H12         0.5647    2.3848    2.8642 H         1 <0>         0.0000
     38 H13        -0.7633    2.0480    1.7599 H         1 <0>         0.0000
     39 H14         0.8317    2.0944   -2.0985 H         1 <0>         0.0000
     40 H15         2.1603    2.4516   -0.9927 H         1 <0>         0.0000
     41 H16         2.1688    1.2508    1.3553 H         1 <0>         0.0000
     42 H17         0.8325    0.1760    1.7448 H         1 <0>         0.0000
     43 H18         2.7243    0.0141   -0.7931 H         1 <0>         0.0000
     44 H19         1.4435   -0.2654   -1.9799 H         1 <0>         0.0000
     45 H20         1.7847   -1.5886    0.7423 H         1 <0>         0.0000
     46 H21        -3.0242    1.2158    0.5013 H         1 <0>         0.0000
     47 H22        -3.1973    0.8990   -1.2172 H         1 <0>         0.0000
     48 H23        -4.3499    0.1817   -0.0722 H         1 <0>         0.0000
     49 H24         3.7775   -1.8828   -1.6045 H         1 <0>         0.0000
     50 H25         3.6353   -3.6387   -1.6429 H         1 <0>         0.0000
     51 H26         1.4898   -2.8095   -1.8854 H         1 <0>         0.0000
@<TRIPOS>BOND
     1    1    3 ar
     2    1    2 ar
     3    1   26 1
     4    2    4 ar
     5    2   27 1
     6    3    5 ar
     7    3   28 1
     8    4    9 ar
     9    4   29 1
    10    5    9 ar
    11    5   30 1
    12    6    8 ar
    13    6   12 ar
    14    6   31 1
    15    7   10 ar
    16    7   12 ar
    17    7   32 1
    18    8   11 ar
    19    8   19 1
    20    9   22 1
    21   10   11 ar
    22   10   21 1
    23   11   24 1
    24   12   25 1
    25   13   15 1
    26   13   14 1
    27   13   33 1
    28   13   34 1
    29   14   16 1
    30   14   35 1
    31   14   36 1
    32   15   17 1
    33   15   37 1
    34   15   38 1
    35   16   20 1
    36   16   39 1
    37   16   40 1
    38   17   20 1
    39   17   41 1
    40   17   42 1
    41   18   19 1
    42   18   20 1
    43   18   43 1
    44   18   44 1
    45   19   23 1
    46   19   45 1
    47   20   24 1
    48   21   46 1
    49   21   47 1
    50   21   48 1
    51   22   23 1
    52   22   49 1
    53   22   50 1
    54   23   51 1
