@<TRIPOS>MOLECULE
*****
   38    41     0     0     0
SMALL
NO_CHARGES

@<TRIPOS>ATOM
      1 C1          5.5476   -4.9149   -1.4354 C.ar      1 <0>         0.0000
      2 C2          6.0064   -3.6008   -1.7153 C.ar      1 <0>         0.0000
      3 C3          4.4184   -5.1070   -0.6670 C.ar      1 <0>         0.0000
      4 C4          5.3273   -2.5061   -1.2226 C.ar      1 <0>         0.0000
      5 C5          2.5370   -4.1533    0.6606 C.ar      1 <0>         0.0000
      6 C6          1.8600   -3.0549    1.1426 C.ar      1 <0>         0.0000
      7 C7          3.4347   -1.5636    0.0887 C.ar      1 <0>         0.0000
      8 C8          3.6963   -3.9978   -0.1473 C.ar      1 <0>         0.0000
      9 C9          4.1574   -2.6719   -0.4304 C.ar      1 <0>         0.0000
     10 C10         2.2914   -1.7286    0.8485 C.ar      1 <0>         0.0000
     11 C11        -0.3691    1.0621    1.0979 C.2       1 <0>         0.0000
     12 C12         0.1529   -0.5853   -2.0056 C.3       1 <0>         0.0000
     13 C13        -1.1786   -0.9054   -1.3116 C.3       1 <0>         0.0000
     14 C14         0.8608    0.3593   -1.0165 C.3       1 <0>         0.0000
     15 C15        -1.8167   -0.7418    1.2030 C.3       1 <0>         0.0000
     16 C16        -0.7641   -1.1135    0.1564 C.3       1 <0>         0.0000
     17 C17         0.3658   -0.0811    0.3920 C.3       1 <0>         0.0000
     18 C18         1.5008   -0.5440    1.3510 C.3       1 <0>         0.0000
     19 O1          0.0405    2.1821    1.2983 O.2       1 <0>         0.0000
     20 O2         -1.6054    0.6578    1.5111 O.3       1 <0>         0.0000
     21 H1          6.0924   -5.7690   -1.8290 H         1 <0>         0.0000
     22 H2          6.8982   -3.4617   -2.3208 H         1 <0>         0.0000
     23 H3          4.0668   -6.1131   -0.4490 H         1 <0>         0.0000
     24 H4          5.6797   -1.4996   -1.4367 H         1 <0>         0.0000
     25 H5          2.1940   -5.1566    0.9034 H         1 <0>         0.0000
     26 H6          0.9903   -3.1979    1.7801 H         1 <0>         0.0000
     27 H7          3.8081   -0.5625   -0.1157 H         1 <0>         0.0000
     28 H8          0.7378   -1.5050   -2.1234 H         1 <0>         0.0000
     29 H9          0.0259   -0.1422   -2.9979 H         1 <0>         0.0000
     30 H10        -1.8587   -0.0473   -1.3914 H         1 <0>         0.0000
     31 H11        -1.6939   -1.7762   -1.7287 H         1 <0>         0.0000
     32 H12         1.9467    0.3050   -1.1028 H         1 <0>         0.0000
     33 H13         0.5795    1.4006   -1.1969 H         1 <0>         0.0000
     34 H14        -2.8445   -0.8444    0.8469 H         1 <0>         0.0000
     35 H15        -1.7047   -1.3098    2.1329 H         1 <0>         0.0000
     36 H16        -0.4186   -2.1397    0.2936 H         1 <0>         0.0000
     37 H17         1.0620   -0.7872    2.3263 H         1 <0>         0.0000
     38 H18         2.1598    0.3146    1.5106 H         1 <0>         0.0000
@<TRIPOS>BOND
     1    1    2 ar
     2    1    3 ar
     3    1   21 1
     4    2    4 ar
     5    2   22 1
     6    3    8 ar
     7    3   23 1
     8    4    9 ar
     9    4   24 1
    10    5    6 ar
    11    5    8 ar
    12    5   25 1
    13    6   10 ar
    14    6   26 1
    15    7    9 ar
    16    7   10 ar
    17    7   27 1
    18    8    9 ar
    19   10   18 1
    20   11   17 1
    21   11   19 2
    22   11   20 1
    23   12   13 1
    24   12   14 1
    25   12   28 1
    26   12   29 1
    27   13   16 1
    28   13   30 1
    29   13   31 1
    30   14   17 1
    31   14   32 1
    32   14   33 1
    33   15   16 1
    34   15   20 1
    35   15   34 1
    36   15   35 1
    37   16   17 1
    38   16   36 1
    39   17   18 1
    40   18   37 1
    41   18   38 1
