@<TRIPOS>MOLECULE
*****
   32    34     0     0     0
SMALL
NO_CHARGES

@<TRIPOS>ATOM
      1 C1          0.5638    0.1650   -2.4985 C.ar      1 <0>         0.0000
      2 C2          0.2331   -0.3055   -1.2212 C.ar      1 <0>         0.0000
      3 C3          0.0961   -0.5107   -3.6247 C.ar      1 <0>         0.0000
      4 C4         -0.5661   -1.4398   -1.0935 C.ar      1 <0>         0.0000
      5 C5         -3.4187   -3.3028    1.9093 C.ar      1 <0>         0.0000
      6 C6         -5.2904   -2.0332    1.1639 C.ar      1 <0>         0.0000
      7 C7         -0.7064   -1.6575   -3.5086 C.ar      1 <0>         0.0000
      8 C8         -1.0433   -2.1217   -2.2250 C.ar      1 <0>         0.0000
      9 C9         -4.6011   -2.6338    2.2230 C.ar      1 <0>         0.0000
     10 C10        -3.7007   -2.7837   -0.2975 C.ar      1 <0>         0.0000
     11 C11        -1.1503   -2.3878   -4.7633 C.3       1 <0>         0.0000
     12 C12        -2.3292   -3.3363   -4.5265 C.3       1 <0>         0.0000
     13 C13        -2.0727   -4.1907   -3.2818 C.3       1 <0>         0.0000
     14 C14        -1.9614   -3.3231   -2.0221 C.3       1 <0>         0.0000
     15 N1         -2.9582   -3.3807    0.6601 N.ar      1 <0>         0.0000
     16 N2         -4.8535   -2.0991   -0.0897 N.ar      1 <0>         0.0000
     17 N3         -3.2976   -2.8791   -1.5971 N.pl3     1 <0>         0.0000
     18 Cl1        -5.1892   -2.5348    3.8681 Cl        1 <0>         0.0000
     19 H1          1.1824    1.0516   -2.6132 H         1 <0>         0.0000
     20 H2          0.5965    0.2094   -0.3355 H         1 <0>         0.0000
     21 H3          0.3557   -0.1462   -4.6171 H         1 <0>         0.0000
     22 H4         -0.8305   -1.8117   -0.1066 H         1 <0>         0.0000
     23 H5         -2.8263   -3.7832    2.6867 H         1 <0>         0.0000
     24 H6         -6.2145   -1.4846    1.3406 H         1 <0>         0.0000
     25 H7         -1.3914   -1.6609   -5.5468 H         1 <0>         0.0000
     26 H8         -0.2994   -2.9716   -5.1419 H         1 <0>         0.0000
     27 H9         -3.2560   -2.7603   -4.4039 H         1 <0>         0.0000
     28 H10        -2.4787   -3.9741   -5.4041 H         1 <0>         0.0000
     29 H11        -2.8656   -4.9300   -3.1335 H         1 <0>         0.0000
     30 H12        -1.1310   -4.7389   -3.4119 H         1 <0>         0.0000
     31 H13        -1.5813   -3.9284   -1.1990 H         1 <0>         0.0000
     32 H14        -3.8023   -2.2576   -2.2178 H         1 <0>         0.0000
@<TRIPOS>BOND
     1    1    2 ar
     2    1    3 ar
     3    1   19 1
     4    2    4 ar
     5    2   20 1
     6    3    7 ar
     7    3   21 1
     8    4    8 ar
     9    4   22 1
    10    5    9 ar
    11    5   15 ar
    12    5   23 1
    13    6    9 ar
    14    6   16 ar
    15    6   24 1
    16    7    8 ar
    17    7   11 1
    18    8   14 1
    19    9   18 1
    20   10   16 ar
    21   10   15 ar
    22   10   17 1
    23   11   12 1
    24   11   25 1
    25   11   26 1
    26   12   13 1
    27   12   27 1
    28   12   28 1
    29   13   14 1
    30   13   29 1
    31   13   30 1
    32   14   17 1
    33   14   31 1
    34   17   32 1
