@<TRIPOS>MOLECULE
*****
   26    27     0     0     0
SMALL
NO_CHARGES

@<TRIPOS>ATOM
      1 C1         -0.7108   -1.1054    0.0981 C.2       1 <0>         0.0000
      2 C2         -0.2112    2.8285   -0.9465 C.2       1 <0>         0.0000
      3 C3          1.5876   -1.1299    0.0342 C.3       1 <0>         0.0000
      4 C4          1.1129   -0.7002    1.4393 C.3       1 <0>         0.0000
      5 C5          0.2523    0.4484   -1.4687 C.3       1 <0>         0.0000
      6 C6         -0.5400    1.1666    0.8789 C.3       1 <0>         0.0000
      7 C7          0.3847   -0.9750   -0.9057 C.3       1 <0>         0.0000
      8 C8         -0.3623   -0.2989    1.3046 C.3       1 <0>         0.0000
      9 C9          0.2875    1.5372   -0.3727 C.3       1 <0>         0.0000
     10 N1         -1.7950   -1.7771   -0.0786 N.2       1 <0>         0.0000
     11 O1         -1.3707    3.2124   -0.9075 O.2       1 <0>         0.0000
     12 O2          0.8027    3.5197   -1.5223 O.3       1 <0>         0.0000
     13 O3         -2.5763   -1.6674    1.0743 O.3       1 <0>         0.0000
     14 H1          2.4543   -0.5488   -0.2982 H         1 <0>         0.0000
     15 H2          1.9007   -2.1808    0.0693 H         1 <0>         0.0000
     16 H3          1.2068   -1.5527    2.1236 H         1 <0>         0.0000
     17 H4          1.7292    0.1075    1.8480 H         1 <0>         0.0000
     18 H5          1.0577    0.6371   -2.1895 H         1 <0>         0.0000
     19 H6         -0.6881    0.5235   -2.0318 H         1 <0>         0.0000
     20 H7         -1.6054    1.3532    0.6868 H         1 <0>         0.0000
     21 H8         -0.2568    1.8289    1.7066 H         1 <0>         0.0000
     22 H9          0.3449   -1.7377   -1.6865 H         1 <0>         0.0000
     23 H10        -0.9595   -0.5536    2.1826 H         1 <0>         0.0000
     24 H11         1.3295    1.7069   -0.0745 H         1 <0>         0.0000
     25 H12         1.6578    3.0444   -1.4497 H         1 <0>         0.0000
     26 H13        -3.3535   -2.2008    0.8358 H         1 <0>         0.0000
@<TRIPOS>BOND
     1    1    7 1
     2    1    8 1
     3    1   10 2
     4    2    9 1
     5    2   11 2
     6    2   12 1
     7    3    4 1
     8    3    7 1
     9    3   14 1
    10    3   15 1
    11    4    8 1
    12    4   16 1
    13    4   17 1
    14    5    7 1
    15    5    9 1
    16    5   18 1
    17    5   19 1
    18    6    8 1
    19    6    9 1
    20    6   20 1
    21    6   21 1
    22    7   22 1
    23    8   23 1
    24    9   24 1
    25   10   13 1
    26   12   25 1
    27   13   26 1
