@<TRIPOS>MOLECULE
*****
   24    24     0     0     0
SMALL
NO_CHARGES

@<TRIPOS>ATOM
      1 C1          2.0891   -1.1098   -0.3009 C.ar      1 <0>         0.0000
      2 C2          1.0057   -0.3703    1.7227 C.ar      1 <0>         0.0000
      3 C3          1.0297   -0.4441    0.3243 C.ar      1 <0>         0.0000
      4 C4          3.1018   -1.6565    1.8605 C.ar      1 <0>         0.0000
      5 C5          3.1025   -1.7055    0.4562 C.ar      1 <0>         0.0000
      6 C6          2.0301   -0.9721    2.4396 C.ar      1 <0>         0.0000
      7 C7          4.1723   -2.3032    2.7018 C.3       1 <0>         0.0000
      8 C8          5.2694   -1.5815   -0.4692 C.3       1 <0>         0.0000
      9 C9         -0.0957    0.1542   -0.4980 C.3       1 <0>         0.0000
     10 N1         -0.6537    1.3559    0.1383 N.3       1 <0>         0.0000
     11 O1          4.1149   -2.3846   -0.2034 O.3       1 <0>         0.0000
     12 F1          1.9904   -0.8984    3.8013 F         1 <0>         0.0000
     13 H1          2.1394   -1.1867   -1.3842 H         1 <0>         0.0000
     14 H2          0.2031    0.1481    2.2360 H         1 <0>         0.0000
     15 H3          4.8882   -1.5616    3.0757 H         1 <0>         0.0000
     16 H4          3.7356   -2.7951    3.5749 H         1 <0>         0.0000
     17 H5          4.7191   -3.0439    2.1157 H         1 <0>         0.0000
     18 H6          5.9855   -2.2261   -0.9833 H         1 <0>         0.0000
     19 H7          5.7165   -1.2063    0.4600 H         1 <0>         0.0000
     20 H8          5.0134   -0.7296   -1.1122 H         1 <0>         0.0000
     21 H9          0.2682    0.3185   -1.5251 H         1 <0>         0.0000
     22 H10        -0.9071   -0.5813   -0.5704 H         1 <0>         0.0000
     23 H11        -1.4660    1.6785   -0.3840 H         1 <0>         0.0000
     24 H12         0.0332    2.1080    0.1150 H         1 <0>         0.0000
@<TRIPOS>BOND
     1    1    3 ar
     2    1    5 ar
     3    1   13 1
     4    2    3 ar
     5    2    6 ar
     6    2   14 1
     7    3    9 1
     8    4    5 ar
     9    4    6 ar
    10    4    7 1
    11    5   11 1
    12    6   12 1
    13    7   15 1
    14    7   16 1
    15    7   17 1
    16    8   11 1
    17    8   18 1
    18    8   19 1
    19    8   20 1
    20    9   10 1
    21    9   21 1
    22    9   22 1
    23   10   23 1
    24   10   24 1
