@<TRIPOS>MOLECULE
*****
   19    19     0     0     0
SMALL
NO_CHARGES

@<TRIPOS>ATOM
      1 C1          5.1390    1.2800    1.7630 C.2       1 <0>         0.0000
      2 C2          3.8450    1.4730    1.4170 C.2       1 <0>         0.0000
      3 C3          4.8690    0.2340   -0.0560 C.2       1 <0>         0.0000
      4 C4          4.0180   -0.9270   -2.0910 C.2       1 <0>         0.0000
      5 C5          4.2830   -1.8550   -3.2540 C.3       1 <0>         0.0000
      6 C6          6.4380   -1.0450   -1.4690 C.3       1 <0>         0.0000
      7 N1          5.7830    0.5030    0.8410 N.2       1 <0>         0.0000
      8 N2          3.6800    0.8030    0.2580 N.pl3     1 <0>         0.0000
      9 N3          5.0590   -0.5570   -1.2350 N.am      1 <0>         0.0000
     10 O1          2.8910   -0.5030   -1.9100 O.2       1 <0>         0.0000
     11 H1          5.6050    1.6730    2.6310 H         1 <0>         0.0000
     12 H2          3.0690    2.0130    1.8930 H         1 <0>         0.0000
     13 H3          4.7670   -2.7380   -2.8650 H         1 <0>         0.0000
     14 H4          4.9080   -1.3200   -3.9540 H         1 <0>         0.0000
     15 H5          3.3250   -2.0940   -3.6920 H         1 <0>         0.0000
     16 H6          7.1340   -0.3290   -1.0530 H         1 <0>         0.0000
     17 H7          6.6220   -1.1260   -2.5300 H         1 <0>         0.0000
     18 H8          6.5310   -1.9990   -0.9670 H         1 <0>         0.0000
     19 H9          2.8330    0.6920   -0.3290 H         1 <0>         0.0000
@<TRIPOS>BOND
     1    1    2 2
     2    1    7 1
     3    1   11 1
     4    2    8 1
     5    2   12 1
     6    3    7 2
     7    3    8 1
     8    3    9 1
     9    4    5 1
    10    4    9 am
    11    4   10 2
    12    5   13 1
    13    5   14 1
    14    5   15 1
    15    6    9 1
    16    6   16 1
    17    6   17 1
    18    6   18 1
    19    8   19 1
