@<TRIPOS>MOLECULE
*****
   51    54     0     0     0
SMALL
NO_CHARGES

@<TRIPOS>ATOM
      1 C1         -1.1568    2.1918   -3.0533 C.1       1 <0>         0.0000
      2 C2         -3.9073   -0.0731   -4.0369 C.ar      1 <0>         0.0000
      3 C3         -1.9094    0.9890   -3.2144 C.ar      1 <0>         0.0000
      4 C4         -3.2134    1.0991   -3.7431 C.ar      1 <0>         0.0000
      5 C5         -3.2769   -1.3105   -3.8407 C.ar      1 <0>         0.0000
      6 C6         -1.3791   -0.3172   -2.9471 C.ar      1 <0>         0.0000
      7 C7          0.0882   -0.5090    0.7113 C.2       1 <0>         0.0000
      8 C8          2.0658    1.6501    0.8080 C.3       1 <0>         0.0000
      9 C9         -2.8477    1.2355    0.6260 C.3       1 <0>         0.0000
     10 C10        -2.1304    2.5037    1.0402 C.3       1 <0>         0.0000
     11 C11         2.4291    0.3101    0.1682 C.3       1 <0>         0.0000
     12 C12         1.4324   -1.7244   -1.0602 C.3       1 <0>         0.0000
     13 C13         1.0771    1.4438    1.9506 C.3       1 <0>         0.0000
     14 C14         0.2796   -1.9107   -2.0562 C.3       1 <0>         0.0000
     15 C15         0.5260    0.4488   -1.5198 C.3       1 <0>         0.0000
     16 C16        -2.3186    1.3746    2.0339 C.3       1 <0>         0.0000
     17 C17         1.1700   -0.3727   -0.3725 C.3       1 <0>         0.0000
     18 C18        -3.8201    2.4534   -4.0031 C.3       1 <0>         0.0000
     19 C19        -3.9584   -2.6043   -4.2075 C.3       1 <0>         0.0000
     20 C20        -1.1574    0.5233    2.5353 C.3       1 <0>         0.0000
     21 N1         -0.5758    3.2020   -2.9681 N.1       1 <0>         0.0000
     22 N2         -2.0554   -1.4240   -3.3132 N.ar      1 <0>         0.0000
     23 N3         -0.1822   -0.5349   -2.3321 N.pl3     1 <0>         0.0000
     24 N4         -0.0111    0.5127    1.6218 N.am      1 <0>         0.0000
     25 O1         -0.7266   -1.4354    0.6816 O.2       1 <0>         0.0000
     26 H1         -4.9115   -0.0292   -4.4467 H         1 <0>         0.0000
     27 H2          2.9558    2.1507    1.2032 H         1 <0>         0.0000
     28 H3          1.6350    2.3172    0.0539 H         1 <0>         0.0000
     29 H4         -3.9232    1.2761    0.4793 H         1 <0>         0.0000
     30 H5         -2.3340    0.5521   -0.0407 H         1 <0>         0.0000
     31 H6         -1.1416    2.6691    0.6247 H         1 <0>         0.0000
     32 H7         -2.7143    3.4095    1.1755 H         1 <0>         0.0000
     33 H8          3.1462    0.4528   -0.6481 H         1 <0>         0.0000
     34 H9          2.9116   -0.3416    0.9084 H         1 <0>         0.0000
     35 H10         1.4781   -2.5490   -0.3463 H         1 <0>         0.0000
     36 H11         2.3930   -1.6671   -1.5843 H         1 <0>         0.0000
     37 H12         1.6082    1.0600    2.8353 H         1 <0>         0.0000
     38 H13         0.6280    2.3991    2.2381 H         1 <0>         0.0000
     39 H14         0.5927   -2.3994   -2.9839 H         1 <0>         0.0000
     40 H15        -0.5351   -2.4875   -1.6201 H         1 <0>         0.0000
     41 H16        -0.1574    1.2069   -1.1427 H         1 <0>         0.0000
     42 H17         1.3055    0.9644   -2.0962 H         1 <0>         0.0000
     43 H18        -3.0698    1.5470    2.8026 H         1 <0>         0.0000
     44 H19        -3.8368    3.0565   -3.0897 H         1 <0>         0.0000
     45 H20        -3.2311    3.0109   -4.7389 H         1 <0>         0.0000
     46 H21        -4.8417    2.3577   -4.3776 H         1 <0>         0.0000
     47 H22        -3.3157   -3.1898   -4.8722 H         1 <0>         0.0000
     48 H23        -4.1251   -3.2061   -3.3079 H         1 <0>         0.0000
     49 H24        -4.9192   -2.4339   -4.6994 H         1 <0>         0.0000
     50 H25        -1.4907   -0.5064    2.6811 H         1 <0>         0.0000
     51 H26        -0.8102    0.9077    3.5010 H         1 <0>         0.0000
@<TRIPOS>BOND
     1    1    3 1
     2    1   21 3
     3    2    4 ar
     4    2    5 ar
     5    2   26 1
     6    3    4 ar
     7    3    6 ar
     8    4   18 1
     9    5   19 1
    10    5   22 ar
    11    6   22 ar
    12    6   23 1
    13    7   17 1
    14    7   24 am
    15    7   25 2
    16    8   11 1
    17    8   13 1
    18    8   27 1
    19    8   28 1
    20    9   10 1
    21    9   16 1
    22    9   29 1
    23    9   30 1
    24   10   16 1
    25   10   31 1
    26   10   32 1
    27   11   17 1
    28   11   33 1
    29   11   34 1
    30   12   14 1
    31   12   17 1
    32   12   35 1
    33   12   36 1
    34   13   24 1
    35   13   37 1
    36   13   38 1
    37   14   23 1
    38   14   39 1
    39   14   40 1
    40   15   17 1
    41   15   23 1
    42   15   41 1
    43   15   42 1
    44   16   20 1
    45   16   43 1
    46   18   44 1
    47   18   45 1
    48   18   46 1
    49   19   47 1
    50   19   48 1
    51   19   49 1
    52   20   24 1
    53   20   50 1
    54   20   51 1
