@<TRIPOS>MOLECULE
*****
   26    27     0     0     0
SMALL
NO_CHARGES

@<TRIPOS>ATOM
      1 C1          2.7934   -4.4270   -0.5951 C.ar      1 <0>         0.0000
      2 C2          3.3863   -3.4252   -2.7233 C.ar      1 <0>         0.0000
      3 C3          1.7654   -0.6843   -0.1514 C.ar      1 <0>         0.0000
      4 C4          2.2010   -5.4984   -1.2642 C.ar      1 <0>         0.0000
      5 C5          2.8144   -4.5074   -3.3991 C.ar      1 <0>         0.0000
      6 C6          0.7275   -0.0958    0.5694 C.ar      1 <0>         0.0000
      7 C7          1.7547   -0.8563    2.6313 C.ar      1 <0>         0.0000
      8 C8          2.7692   -1.4887    1.8956 C.ar      1 <0>         0.0000
      9 C9          3.3765   -3.3803   -1.3237 C.ar      1 <0>         0.0000
     10 C10         2.7916   -1.3894    0.4915 C.ar      1 <0>         0.0000
     11 C11         2.2181   -5.5308   -2.6617 C.ar      1 <0>         0.0000
     12 C12         0.7385   -0.1781    1.9639 C.ar      1 <0>         0.0000
     13 C13         3.7364   -2.3434    2.6538 C.2       1 <0>         0.0000
     14 O1          4.0711   -3.4700    2.3449 O.2       1 <0>         0.0000
     15 O2          4.1641   -1.7423    3.7946 O.3       1 <0>         0.0000
     16 S1          4.1648   -2.0010   -0.4919 S.3       1 <0>         0.0000
     17 Cl1         1.4787   -6.8833   -3.5032 Cl        1 <0>         0.0000
     18 Cl2        -0.5400    0.5855    2.8867 Cl        1 <0>         0.0000
     19 H1          2.8205   -4.4068    0.4895 H         1 <0>         0.0000
     20 H2          3.8339   -2.6129   -3.2887 H         1 <0>         0.0000
     21 H3          1.7868   -0.5929   -1.2330 H         1 <0>         0.0000
     22 H4          1.7434   -6.3095   -0.7063 H         1 <0>         0.0000
     23 H5          2.8206   -4.5467   -4.4838 H         1 <0>         0.0000
     24 H6         -0.0675    0.4387    0.0590 H         1 <0>         0.0000
     25 H7          1.7544   -0.9148    3.7141 H         1 <0>         0.0000
     26 H8          4.7374   -2.3921    4.2463 H         1 <0>         0.0000
@<TRIPOS>BOND
     1    1    4 ar
     2    1    9 ar
     3    1   19 1
     4    2    5 ar
     5    2    9 ar
     6    2   20 1
     7    3    6 ar
     8    3   10 ar
     9    3   21 1
    10    4   11 ar
    11    4   22 1
    12    5   11 ar
    13    5   23 1
    14    6   12 ar
    15    6   24 1
    16    7    8 ar
    17    7   12 ar
    18    7   25 1
    19    8   10 ar
    20    8   13 1
    21    9   16 1
    22   10   16 1
    23   11   17 1
    24   12   18 1
    25   13   14 2
    26   13   15 1
    27   15   26 1
