@<TRIPOS>MOLECULE
*****
   21    22     0     0     0
SMALL
NO_CHARGES

@<TRIPOS>ATOM
      1 C1          1.8660   -1.0702   -0.0980 C.ar      1 <0>         0.0000
      2 C2          2.9086   -1.6615    0.6230 C.ar      1 <0>         0.0000
      3 C3          0.7865   -0.4892    0.5757 C.ar      1 <0>         0.0000
      4 C4          2.8756   -1.6747    2.0198 C.ar      1 <0>         0.0000
      5 C5          0.7452   -0.4977    1.9723 C.ar      1 <0>         0.0000
      6 C6          1.7902   -1.0949    2.6849 C.ar      1 <0>         0.0000
      7 C7         -0.0950   -4.4258    4.6820 C.2       1 <0>         0.0000
      8 C8          0.9121   -2.5999    4.7714 C.2       1 <0>         0.0000
      9 N1          0.4499   -3.4718    3.8872 N.2       1 <0>         0.0000
     10 N2         -0.0189   -4.2355    5.9884 N.2       1 <0>         0.0000
     11 N3          0.6360   -3.0487    6.0335 N.pl3     1 <0>         0.0000
     12 N4         -0.7426   -5.6196    4.1356 N.pl3     1 <0>         0.0000
     13 O1         -0.7708   -5.7203    2.9090 O.3       1 <0>         0.0000
     14 O2         -1.2060   -6.4254    4.9445 O.2       1 <0>         0.0000
     15 S1          1.7570   -1.0827    4.4793 S.3       1 <0>         0.0000
     16 H1          1.8935   -1.0641   -1.1843 H         1 <0>         0.0000
     17 H2          3.7456   -2.1162    0.1004 H         1 <0>         0.0000
     18 H3         -0.0255   -0.0329    0.0163 H         1 <0>         0.0000
     19 H4          3.6765   -2.1381    2.5877 H         1 <0>         0.0000
     20 H5         -0.0922   -0.0561    2.5037 H         1 <0>         0.0000
     21 H6          0.8493   -2.6267    6.9302 H         1 <0>         0.0000
@<TRIPOS>BOND
     1    1    3 ar
     2    1    2 ar
     3    1   16 1
     4    2    4 ar
     5    2   17 1
     6    3    5 ar
     7    3   18 1
     8    4    6 ar
     9    4   19 1
    10    5    6 ar
    11    5   20 1
    12    6   15 1
    13    7    9 1
    14    7   10 2
    15    7   12 1
    16    8    9 2
    17    8   11 1
    18    8   15 1
    19   10   11 1
    20   11   21 1
    21   12   13 1
    22   12   14 2
