@<TRIPOS>MOLECULE
*****
   25    26     0     0     0
SMALL
NO_CHARGES

@<TRIPOS>ATOM
      1 C1          1.7683   -1.1481   -0.0455 C.ar      1 <0>         0.0000
      2 C2          0.7476   -0.5279    0.6804 C.ar      1 <0>         0.0000
      3 C3          5.6548   -4.1635    2.9679 C.ar      1 <0>         0.0000
      4 C4          2.8397   -1.7401    0.6250 C.ar      1 <0>         0.0000
      5 C5          0.8038   -0.5102    2.0760 C.ar      1 <0>         0.0000
      6 C6          4.5488   -3.6175    2.3123 C.ar      1 <0>         0.0000
      7 C7          6.2664   -3.4437    3.9923 C.ar      1 <0>         0.0000
      8 C8          2.9233   -1.7290    2.0272 C.ar      1 <0>         0.0000
      9 C9          1.8776   -1.1092    2.7288 C.ar      1 <0>         0.0000
     10 C10         4.0873   -2.3551    2.7068 C.ar      1 <0>         0.0000
     11 C11         5.7170   -2.1930    4.3010 C.ar      1 <0>         0.0000
     12 C12         1.3078   -2.0464    4.8131 C.3       1 <0>         0.0000
     13 N1          4.6767   -1.6560    3.6958 N.ar      1 <0>         0.0000
     14 O1          1.9102   -1.0443    4.1338 O.3       1 <0>         0.0000
     15 F1          1.7994   -3.2694    4.4973 F         1 <0>         0.0000
     16 F2         -0.0304   -2.1024    4.5885 F         1 <0>         0.0000
     17 F3          1.5030   -1.8359    6.1184 F         1 <0>         0.0000
     18 Cl1         6.4572   -1.2475    5.5889 Cl        1 <0>         0.0000
     19 H1          1.7371   -1.1611   -1.1313 H         1 <0>         0.0000
     20 H2         -0.0871   -0.0587    0.1674 H         1 <0>         0.0000
     21 H3          6.0308   -5.1449    2.6917 H         1 <0>         0.0000
     22 H4          3.6455   -2.1956    0.0563 H         1 <0>         0.0000
     23 H5          0.0236   -0.0420    2.6674 H         1 <0>         0.0000
     24 H6          4.0342   -4.1691    1.5323 H         1 <0>         0.0000
     25 H7          7.1238   -3.8257    4.5351 H         1 <0>         0.0000
@<TRIPOS>BOND
     1    1    2 ar
     2    1    4 ar
     3    1   19 1
     4    2    5 ar
     5    2   20 1
     6    3    6 ar
     7    3    7 ar
     8    3   21 1
     9    4    8 ar
    10    4   22 1
    11    5    9 ar
    12    5   23 1
    13    6   10 ar
    14    6   24 1
    15    7   11 ar
    16    7   25 1
    17    8    9 ar
    18    8   10 1
    19    9   14 1
    20   10   13 ar
    21   11   13 ar
    22   11   18 1
    23   12   14 1
    24   12   15 1
    25   12   16 1
    26   12   17 1
