@<TRIPOS>MOLECULE
*****
   48    51     0     0     0
SMALL
NO_CHARGES

@<TRIPOS>ATOM
      1 C1         -2.1973   -6.2522   -0.5360 C.2       1 <0>         0.0000
      2 C2         -1.8798   -5.1367   -1.2618 C.2       1 <0>         0.0000
      3 C3         -2.5850   -4.7459    1.0383 C.2       1 <0>         0.0000
      4 C4          0.0453   -0.9967    1.9995 C.2       1 <0>         0.0000
      5 C5          1.9482   -2.3054    3.7940 C.3       1 <0>         0.0000
      6 C6          0.6967   -1.6490    4.3712 C.3       1 <0>         0.0000
      7 C7         -1.7303   -0.9668    3.8255 C.3       1 <0>         0.0000
      8 C8          2.9211    0.2369    0.2384 C.3       1 <0>         0.0000
      9 C9          2.0942   -1.9953   -0.5803 C.3       1 <0>         0.0000
     10 C10         2.4376   -1.5189    2.5834 C.3       1 <0>         0.0000
     11 C11        -2.8405   -2.0164    3.6127 C.3       1 <0>         0.0000
     12 C12        -0.8835   -3.0764    2.9692 C.3       1 <0>         0.0000
     13 C13         3.2601    0.5541   -1.2217 C.3       1 <0>         0.0000
     14 C14         2.5016   -1.5469   -1.9863 C.3       1 <0>         0.0000
     15 C15         1.7632   -0.7685    0.2831 C.3       1 <0>         0.0000
     16 C16        -0.4194   -1.6352    3.3228 C.3       1 <0>         0.0000
     17 C17        -3.0053   -4.1364    2.3493 C.3       1 <0>         0.0000
     18 N1         -2.5915   -6.0218    0.7675 N.2       1 <0>         0.0000
     19 N2          1.3664   -1.1628    1.6451 N.am      1 <0>         0.0000
     20 N3         -2.2795   -2.9080    2.5999 N.3       1 <0>         0.0000
     21 O1         -0.7654   -0.4526    1.2467 O.2       1 <0>         0.0000
     22 O2          3.5898   -0.6234   -1.9562 O.3       1 <0>         0.0000
     23 S1         -2.0758   -3.7124   -0.2891 S.3       1 <0>         0.0000
     24 H1         -2.1525   -7.2717   -0.9042 H         1 <0>         0.0000
     25 H2         -1.5387   -5.0798   -2.2876 H         1 <0>         0.0000
     26 H3          2.7544   -2.3409    4.5345 H         1 <0>         0.0000
     27 H4          1.7297   -3.3399    3.5084 H         1 <0>         0.0000
     28 H5          0.3511   -2.1818    5.2647 H         1 <0>         0.0000
     29 H6          0.9257   -0.6209    4.6816 H         1 <0>         0.0000
     30 H7         -1.9341   -0.0710    3.2393 H         1 <0>         0.0000
     31 H8         -1.6457   -0.6862    4.8792 H         1 <0>         0.0000
     32 H9          3.8178   -0.1702    0.7182 H         1 <0>         0.0000
     33 H10         2.6454    1.1585    0.7649 H         1 <0>         0.0000
     34 H11         1.2186   -2.6521   -0.6360 H         1 <0>         0.0000
     35 H12         2.9176   -2.5685   -0.1375 H         1 <0>         0.0000
     36 H13         2.9328   -0.6004    2.9297 H         1 <0>         0.0000
     37 H14         3.1918   -2.0991    2.0431 H         1 <0>         0.0000
     38 H15        -3.0501   -2.5552    4.5564 H         1 <0>         0.0000
     39 H16        -3.7794   -1.5800    3.2584 H         1 <0>         0.0000
     40 H17        -0.3149   -3.5327    2.1552 H         1 <0>         0.0000
     41 H18        -0.7688   -3.7240    3.8625 H         1 <0>         0.0000
     42 H19         2.4112    1.0669   -1.7029 H         1 <0>         0.0000
     43 H20         4.1341    1.2073   -1.2888 H         1 <0>         0.0000
     44 H21         2.8397   -2.3933   -2.5897 H         1 <0>         0.0000
     45 H22         1.6397   -1.0854   -2.4955 H         1 <0>         0.0000
     46 H23         0.8813   -0.2850   -0.1407 H         1 <0>         0.0000
     47 H24        -4.0746   -3.8977    2.2994 H         1 <0>         0.0000
     48 H25        -2.8796   -4.8993    3.1381 H         1 <0>         0.0000
@<TRIPOS>BOND
     1    1    2 2
     2    1   18 1
     3    1   24 1
     4    2   23 1
     5    2   25 1
     6    3   17 1
     7    3   18 2
     8    3   23 1
     9    4   16 1
    10    4   19 am
    11    4   21 2
    12    5    6 1
    13    5   10 1
    14    5   26 1
    15    5   27 1
    16    6   16 1
    17    6   28 1
    18    6   29 1
    19    7   11 1
    20    7   16 1
    21    7   30 1
    22    7   31 1
    23    8   13 1
    24    8   15 1
    25    8   32 1
    26    8   33 1
    27    9   14 1
    28    9   15 1
    29    9   34 1
    30    9   35 1
    31   10   19 1
    32   10   36 1
    33   10   37 1
    34   11   20 1
    35   11   38 1
    36   11   39 1
    37   12   16 1
    38   12   20 1
    39   12   40 1
    40   12   41 1
    41   13   22 1
    42   13   42 1
    43   13   43 1
    44   14   22 1
    45   14   44 1
    46   14   45 1
    47   15   19 1
    48   15   46 1
    49   17   20 1
    50   17   47 1
    51   17   48 1
