@<TRIPOS>MOLECULE
*****
   37    39     0     0     0
SMALL
NO_CHARGES

@<TRIPOS>ATOM
      1 C1         -0.3580   -1.6655    1.3039 C.ar      1 <0>         0.0000
      2 C2          0.3389   -0.8838    2.2337 C.ar      1 <0>         0.0000
      3 C3          0.2015   -2.8358    0.7755 C.ar      1 <0>         0.0000
      4 C4         -2.4998   -7.6247   -4.0753 C.ar      1 <0>         0.0000
      5 C5         -2.6472   -6.4569   -3.3254 C.ar      1 <0>         0.0000
      6 C6          1.6216   -1.2575    2.6597 C.ar      1 <0>         0.0000
      7 C7         -0.3278   -7.9348   -3.1283 C.ar      1 <0>         0.0000
      8 C8          1.4792   -3.2117    1.1973 C.ar      1 <0>         0.0000
      9 C9         -0.4584   -6.7560   -2.3613 C.ar      1 <0>         0.0000
     10 C10        -1.3271   -8.3885   -3.9887 C.ar      1 <0>         0.0000
     11 C11        -1.6492   -5.9930   -2.4599 C.ar      1 <0>         0.0000
     12 C12         2.1564   -2.4173    2.1254 C.ar      1 <0>         0.0000
     13 C13         2.3362   -4.3765    0.8330 C.2       1 <0>         0.0000
     14 C14         0.6889   -6.4352   -1.5148 C.2       1 <0>         0.0000
     15 C15        -1.1564   -9.6476   -4.8064 C.3       1 <0>         0.0000
     16 C16        -1.8779   -4.7247   -1.6808 C.3       1 <0>         0.0000
     17 N1          3.5115   -4.4730    1.3975 N.2       1 <0>         0.0000
     18 N2          0.8051   -5.4158   -0.7292 N.2       1 <0>         0.0000
     19 N3          1.9878   -5.3540   -0.0474 N.pl3     1 <0>         0.0000
     20 O1          4.8358   -2.3203    1.9445 O.2       1 <0>         0.0000
     21 O2          3.8190   -3.6592    3.8328 O.2       1 <0>         0.0000
     22 S1          3.7609   -3.1715    2.4548 S.o2      1 <0>         0.0000
     23 H1         -1.3510   -1.3605    0.9853 H         1 <0>         0.0000
     24 H2         -0.1166    0.0199    2.6291 H         1 <0>         0.0000
     25 H3         -0.3357   -3.4381    0.0589 H         1 <0>         0.0000
     26 H4         -3.3050   -7.9447   -4.7335 H         1 <0>         0.0000
     27 H5         -3.5685   -5.8859   -3.4132 H         1 <0>         0.0000
     28 H6          2.1755   -0.6628    3.3799 H         1 <0>         0.0000
     29 H7          0.5912   -8.5119   -3.0424 H         1 <0>         0.0000
     30 H8          1.5160   -7.1560   -1.5800 H         1 <0>         0.0000
     31 H9         -1.1075   -9.4178   -5.8768 H         1 <0>         0.0000
     32 H10        -0.2395  -10.1791   -4.5375 H         1 <0>         0.0000
     33 H11        -1.9980  -10.3325   -4.6586 H         1 <0>         0.0000
     34 H12        -1.8229   -4.9077   -0.6031 H         1 <0>         0.0000
     35 H13        -1.1177   -3.9736   -1.9173 H         1 <0>         0.0000
     36 H14        -2.8610   -4.3059   -1.9108 H         1 <0>         0.0000
     37 H15         2.6939   -6.0808   -0.1824 H         1 <0>         0.0000
@<TRIPOS>BOND
     1    1    2 ar
     2    1    3 ar
     3    1   23 1
     4    2    6 ar
     5    2   24 1
     6    3    8 ar
     7    3   25 1
     8    4    5 ar
     9    4   10 ar
    10    4   26 1
    11    5   11 ar
    12    5   27 1
    13    6   12 ar
    14    6   28 1
    15    7    9 ar
    16    7   10 ar
    17    7   29 1
    18    8   12 ar
    19    8   13 1
    20    9   11 ar
    21    9   14 1
    22   10   15 1
    23   11   16 1
    24   12   22 1
    25   13   17 2
    26   13   19 1
    27   14   18 2
    28   14   30 1
    29   15   31 1
    30   15   32 1
    31   15   33 1
    32   16   34 1
    33   16   35 1
    34   16   36 1
    35   17   22 1
    36   18   19 1
    37   19   37 1
    38   20   22 2
    39   21   22 2
