@<TRIPOS>MOLECULE
*****
   35    37     0     0     0
SMALL
NO_CHARGES

@<TRIPOS>ATOM
      1 C1         -0.1839   -0.7479   -1.0006 C.ar      1 <0>         0.0000
      2 C2         -0.1275    0.1964   -2.0428 C.ar      1 <0>         0.0000
      3 C3         -2.5140   -7.4784   -8.2466 C.ar      1 <0>         0.0000
      4 C4         -0.7886   -7.0088   -9.8713 C.ar      1 <0>         0.0000
      5 C5         -0.2463   -2.1146   -1.2709 C.ar      1 <0>         0.0000
      6 C6         -1.7469   -6.8921   -7.2433 C.ar      1 <0>         0.0000
      7 C7         -0.0026   -6.4163   -8.8796 C.ar      1 <0>         0.0000
      8 C8         -2.0486   -7.5465   -9.5723 C.ar      1 <0>         0.0000
      9 C9         -0.1310   -0.1836   -3.3865 C.ar      1 <0>         0.0000
     10 C10        -0.1977   -1.5639   -3.6638 C.ar      1 <0>         0.0000
     11 C11        -0.2604   -2.5069   -2.6127 C.ar      1 <0>         0.0000
     12 C12        -0.4967   -6.3622   -7.5765 C.ar      1 <0>         0.0000
     13 C13        -0.2577   -3.4085   -4.8836 C.2       1 <0>         0.0000
     14 C14        -2.8804   -8.2143  -10.6405 C.3       1 <0>         0.0000
     15 C15        -0.0610    0.8161   -4.5122 C.3       1 <0>         0.0000
     16 N1         -0.1917   -2.1137   -4.9427 N.2       1 <0>         0.0000
     17 N2         -0.4028   -4.1668   -6.0569 N.pl3     1 <0>         0.0000
     18 O1          1.8180   -5.3174   -6.8500 O.2       1 <0>         0.0000
     19 O2          0.3512   -6.3635   -5.0442 O.2       1 <0>         0.0000
     20 S1         -0.3235   -4.1358   -3.2727 S.3       1 <0>         0.0000
     21 S2          0.4985   -5.6215   -6.2955 S.o2      1 <0>         0.0000
     22 H1         -0.1785   -0.4069    0.0311 H         1 <0>         0.0000
     23 H2         -0.0768    1.2541   -1.7952 H         1 <0>         0.0000
     24 H3         -3.4887   -7.8920   -7.9987 H         1 <0>         0.0000
     25 H4         -0.4125   -7.0550  -10.8903 H         1 <0>         0.0000
     26 H5         -0.2867   -2.8430   -0.4662 H         1 <0>         0.0000
     27 H6         -2.1040   -6.8462   -6.2192 H         1 <0>         0.0000
     28 H7          0.9782   -6.0094   -9.1044 H         1 <0>         0.0000
     29 H8         -2.7614   -9.3033  -10.5949 H         1 <0>         0.0000
     30 H9         -3.9446   -7.9963  -10.5110 H         1 <0>         0.0000
     31 H10        -2.5835   -7.8904  -11.6415 H         1 <0>         0.0000
     32 H11         0.8249    0.6445   -5.1325 H         1 <0>         0.0000
     33 H12        -0.9302    0.7249   -5.1719 H         1 <0>         0.0000
     34 H13        -0.0226    1.8384   -4.1267 H         1 <0>         0.0000
     35 H14        -0.3140   -3.5515   -6.8677 H         1 <0>         0.0000
@<TRIPOS>BOND
     1    1    2 ar
     2    1    5 ar
     3    1   22 1
     4    2    9 ar
     5    2   23 1
     6    3    6 ar
     7    3    8 ar
     8    3   24 1
     9    4    7 ar
    10    4    8 ar
    11    4   25 1
    12    5   11 ar
    13    5   26 1
    14    6   12 ar
    15    6   27 1
    16    7   12 ar
    17    7   28 1
    18    8   14 1
    19    9   10 ar
    20    9   15 1
    21   10   11 ar
    22   10   16 1
    23   11   20 1
    24   12   21 1
    25   13   16 2
    26   13   17 1
    27   13   20 1
    28   14   29 1
    29   14   30 1
    30   14   31 1
    31   15   32 1
    32   15   33 1
    33   15   34 1
    34   17   21 1
    35   17   35 1
    36   18   21 2
    37   19   21 2
