@<TRIPOS>MOLECULE
*****
   27    29     0     0     0
SMALL
NO_CHARGES

@<TRIPOS>ATOM
      1 C1          0.8052    1.2365    1.7928 C.ar      1 <0>         0.0000
      2 C2          0.6195    1.7315    3.0962 C.ar      1 <0>         0.0000
      3 C3          0.7223   -2.3373   -2.9561 C.2       1 <0>         0.0000
      4 C4          1.3565   -2.1497   -4.2187 C.2       1 <0>         0.0000
      5 C5         -1.5130    0.4442    1.6933 C.ar      1 <0>         0.0000
      6 C6         -0.2372    0.6075    1.1084 C.ar      1 <0>         0.0000
      7 C7         -0.6369    1.5795    3.6537 C.ar      1 <0>         0.0000
      8 C8         -1.6786    0.9556    2.9652 C.ar      1 <0>         0.0000
      9 C9          1.1930   -1.4705   -2.0010 C.2       1 <0>         0.0000
     10 C10         2.2920   -1.1450   -4.1722 C.2       1 <0>         0.0000
     11 C11        -2.3897    1.4182    5.0346 C.3       1 <0>         0.0000
     12 N1          0.0157    0.1197   -0.2234 N.pl3     1 <0>         0.0000
     13 O1          1.8454   -1.4599    0.5760 O.2       1 <0>         0.0000
     14 O2         -0.3588   -2.4907   -0.1830 O.2       1 <0>         0.0000
     15 O3         -1.0893    2.0109    4.8821 O.3       1 <0>         0.0000
     16 O4         -2.8199    0.9705    3.7374 O.3       1 <0>         0.0000
     17 S1          2.4287   -0.4048   -2.6040 S.3       1 <0>         0.0000
     18 S2          0.6828   -1.4646   -0.3069 S.o2      1 <0>         0.0000
     19 Cl1         3.2748   -0.5956   -5.4821 Cl        1 <0>         0.0000
     20 H1          1.7697    1.3255    1.3061 H         1 <0>         0.0000
     21 H2          1.4235    2.2195    3.6372 H         1 <0>         0.0000
     22 H3         -0.0407   -3.0781   -2.7439 H         1 <0>         0.0000
     23 H4          1.1389   -2.7221   -5.1130 H         1 <0>         0.0000
     24 H5         -2.3162   -0.0712    1.1758 H         1 <0>         0.0000
     25 H6         -2.3189    0.5553    5.7104 H         1 <0>         0.0000
     26 H7         -3.0882    2.1696    5.4076 H         1 <0>         0.0000
     27 H8         -0.8296    0.1208   -0.7963 H         1 <0>         0.0000
@<TRIPOS>BOND
     1    1    2 ar
     2    1    6 ar
     3    1   20 1
     4    2    7 ar
     5    2   21 1
     6    3    4 1
     7    3    9 2
     8    3   22 1
     9    4   10 2
    10    4   23 1
    11    5    6 ar
    12    5    8 ar
    13    5   24 1
    14    6   12 1
    15    7    8 ar
    16    7   15 1
    17    8   16 1
    18    9   17 1
    19    9   18 1
    20   10   17 1
    21   10   19 1
    22   11   15 1
    23   11   16 1
    24   11   25 1
    25   11   26 1
    26   12   18 1
    27   12   27 1
    28   13   18 2
    29   14   18 2
