@<TRIPOS>MOLECULE
*****
   29    31     0     0     0
SMALL
NO_CHARGES

@<TRIPOS>ATOM
      1 C1         -4.1512   -2.7267   -8.8138 C.ar      1 <0>         0.0000
      2 C2          3.6801    0.9966   -4.5309 C.ar      1 <0>         0.0000
      3 C3          3.3131    1.7723   -5.6452 C.ar      1 <0>         0.0000
      4 C4         -4.2966   -3.6142   -9.8850 C.ar      1 <0>         0.0000
      5 C5         -3.2415   -3.0108   -7.7957 C.ar      1 <0>         0.0000
      6 C6          3.0645   -0.2304   -4.2510 C.ar      1 <0>         0.0000
      7 C7          2.3083    1.3488   -6.5303 C.ar      1 <0>         0.0000
      8 C8         -3.5376   -4.7863   -9.9305 C.ar      1 <0>         0.0000
      9 C9         -2.4558   -4.1808   -7.8196 C.ar      1 <0>         0.0000
     10 C10         2.0630   -0.6628   -5.1239 C.ar      1 <0>         0.0000
     11 C11         1.7179    0.1338   -6.2284 C.ar      1 <0>         0.0000
     12 C12        -2.6326   -5.0582   -8.9035 C.ar      1 <0>         0.0000
     13 C13         0.5224   -1.6790   -6.1692 C.2       1 <0>         0.0000
     14 C14        -1.5343   -4.4946   -6.7003 C.2       1 <0>         0.0000
     15 N1          1.2691   -1.8203   -5.1204 N.2       1 <0>         0.0000
     16 N2         -0.6603   -3.7240   -6.1521 N.2       1 <0>         0.0000
     17 N3         -0.4793   -2.4742   -6.6627 N.pl3     1 <0>         0.0000
     18 O1          0.7080   -0.5308   -6.9151 O.3       1 <0>         0.0000
     19 Br1        -1.6013   -6.6730   -9.0106 Br        1 <0>         0.0000
     20 H1         -4.7497   -1.8214   -8.7671 H         1 <0>         0.0000
     21 H2          4.4626    1.3603   -3.8704 H         1 <0>         0.0000
     22 H3          3.8153    2.7181   -5.8273 H         1 <0>         0.0000
     23 H4         -5.0015   -3.4015  -10.6838 H         1 <0>         0.0000
     24 H5         -3.1513   -2.3371   -6.9480 H         1 <0>         0.0000
     25 H6          3.3490   -0.8284   -3.3906 H         1 <0>         0.0000
     26 H7          2.0153    1.9370   -7.3944 H         1 <0>         0.0000
     27 H8         -3.6447   -5.4823  -10.7560 H         1 <0>         0.0000
     28 H9         -1.5840   -5.4910   -6.2679 H         1 <0>         0.0000
     29 H10        -0.8482   -2.2222   -7.5783 H         1 <0>         0.0000
@<TRIPOS>BOND
     1    1    4 ar
     2    1    5 ar
     3    1   20 1
     4    2    3 ar
     5    2    6 ar
     6    2   21 1
     7    3    7 ar
     8    3   22 1
     9    4    8 ar
    10    4   23 1
    11    5    9 ar
    12    5   24 1
    13    6   10 ar
    14    6   25 1
    15    7   11 ar
    16    7   26 1
    17    8   12 ar
    18    8   27 1
    19    9   12 ar
    20    9   14 1
    21   10   11 ar
    22   10   15 1
    23   11   18 1
    24   12   19 1
    25   13   15 2
    26   13   17 1
    27   13   18 1
    28   14   16 2
    29   14   28 1
    30   16   17 1
    31   17   29 1
