@<TRIPOS>MOLECULE
*****
   25    26     0     0     0
SMALL
NO_CHARGES

@<TRIPOS>ATOM
      1 C1         -1.8047   -1.2791   -4.5027 C.ar      1 <0>         0.0000
      2 C2         -2.7454   -1.7678   -5.4120 C.ar      1 <0>         0.0000
      3 C3         -1.9807   -0.1491   -7.0562 C.ar      1 <0>         0.0000
      4 C4         -0.9384   -0.2363   -4.8457 C.ar      1 <0>         0.0000
      5 C5         -1.0452    0.3047   -6.1344 C.ar      1 <0>         0.0000
      6 C6         -2.8286   -1.1933   -6.6815 C.ar      1 <0>         0.0000
      7 C7          0.9632   -0.2313   -1.0451 C.3       1 <0>         0.0000
      8 C8          2.1986   -0.0219   -1.9458 C.3       1 <0>         0.0000
      9 C9          0.7487    1.7253   -2.2587 C.3       1 <0>         0.0000
     10 C10        -0.0074    1.5642   -3.5747 C.3       1 <0>         0.0000
     11 O1          0.1708    0.9532   -1.2198 O.3       1 <0>         0.0000
     12 O2          2.1082    1.3503   -2.3547 O.3       1 <0>         0.0000
     13 O3          0.0059    0.1716   -3.9427 O.3       1 <0>         0.0000
     14 F1         -0.2026    1.3010   -6.5037 F         1 <0>         0.0000
     15 Cl1        -4.0113   -1.7887   -7.8321 Cl        1 <0>         0.0000
     16 H1         -1.7267   -1.7009   -3.5053 H         1 <0>         0.0000
     17 H2         -3.4109   -2.5784   -5.1348 H         1 <0>         0.0000
     18 H3         -2.0260    0.2998   -8.0427 H         1 <0>         0.0000
     19 H4          0.3870   -1.1115   -1.3469 H         1 <0>         0.0000
     20 H5          1.2210   -0.3101    0.0155 H         1 <0>         0.0000
     21 H6          3.1442   -0.1453   -1.4123 H         1 <0>         0.0000
     22 H7          2.1775   -0.6791   -2.8199 H         1 <0>         0.0000
     23 H8          0.7122    2.7831   -1.9704 H         1 <0>         0.0000
     24 H9          0.4734    2.1701   -4.3485 H         1 <0>         0.0000
     25 H10        -1.0415    1.9004   -3.4342 H         1 <0>         0.0000
@<TRIPOS>BOND
     1    1    2 ar
     2    1    4 ar
     3    1   16 1
     4    2    6 ar
     5    2   17 1
     6    3    5 ar
     7    3    6 ar
     8    3   18 1
     9    4    5 ar
    10    4   13 1
    11    5   14 1
    12    6   15 1
    13    7    8 1
    14    7   11 1
    15    7   19 1
    16    7   20 1
    17    8   12 1
    18    8   21 1
    19    8   22 1
    20    9   10 1
    21    9   12 1
    22    9   11 1
    23    9   23 1
    24   10   13 1
    25   10   24 1
    26   10   25 1
