@<TRIPOS>MOLECULE
*****
   40    43     0     0     0
SMALL
NO_CHARGES

@<TRIPOS>ATOM
      1 C1          0.8111   -1.1082    1.6772 C.ar      1 <0>         0.0000
      2 C2          0.0258   -0.9798    0.5248 C.ar      1 <0>         0.0000
      3 C3          1.4458   -2.3202    1.9476 C.ar      1 <0>         0.0000
      4 C4         -0.1085   -2.0649   -0.3403 C.ar      1 <0>         0.0000
      5 C5          2.0604   -9.2466   -5.1156 C.ar      1 <0>         0.0000
      6 C6          1.8915   -8.4661   -3.9704 C.ar      1 <0>         0.0000
      7 C7          0.4091   -6.9182   -5.1672 C.ar      1 <0>         0.0000
      8 C8          1.3200   -3.4156    1.0799 C.ar      1 <0>         0.0000
      9 C9          0.5373   -3.2810   -0.0757 C.ar      1 <0>         0.0000
     10 C10         1.4060   -8.8668   -6.2893 C.ar      1 <0>         0.0000
     11 C11         1.0750   -7.3097   -3.9885 C.ar      1 <0>         0.0000
     12 C12         0.6029   -7.7188   -6.2804 C.ar      1 <0>         0.0000
     13 C13         0.5960   -8.6439   -8.2577 C.2       1 <0>         0.0000
     14 C14         1.3115   -6.6874   -1.5565 C.2       1 <0>         0.0000
     15 C15         1.9882   -4.7374    1.3802 C.3       1 <0>         0.0000
     16 C16         0.3785   -4.4084   -1.0823 C.3       1 <0>         0.0000
     17 C17         1.2067   -5.8851    0.7483 C.3       1 <0>         0.0000
     18 C18         0.1940   -8.7452   -9.6857 C.3       1 <0>         0.0000
     19 N1          1.3714   -9.4260   -7.5761 N.2       1 <0>         0.0000
     20 N2          1.0435   -5.6436   -0.6852 N.am      1 <0>         0.0000
     21 N3          0.8918   -6.4739   -2.8645 N.am      1 <0>         0.0000
     22 O1          1.8854   -7.7153   -1.1936 O.2       1 <0>         0.0000
     23 O2          0.0769   -7.5675   -7.5446 O.3       1 <0>         0.0000
     24 H1          0.9196   -0.2709    2.3616 H         1 <0>         0.0000
     25 H2         -0.4795   -0.0429    0.3061 H         1 <0>         0.0000
     26 H3          2.0463   -2.4274    2.8487 H         1 <0>         0.0000
     27 H4         -0.7215   -1.9673   -1.2350 H         1 <0>         0.0000
     28 H5          2.6882  -10.1322   -5.0900 H         1 <0>         0.0000
     29 H6          2.3766   -8.7408   -3.0451 H         1 <0>         0.0000
     30 H7         -0.2230   -6.0345   -5.2033 H         1 <0>         0.0000
     31 H8          3.0118   -4.7452    0.9855 H         1 <0>         0.0000
     32 H9          2.0577   -4.8873    2.4630 H         1 <0>         0.0000
     33 H10        -0.6982   -4.5730   -1.2581 H         1 <0>         0.0000
     34 H11         0.8156   -4.0576   -2.0248 H         1 <0>         0.0000
     35 H12         1.7266   -6.8347    0.8594 H         1 <0>         0.0000
     36 H13         0.2195   -5.9725    1.2249 H         1 <0>         0.0000
     37 H14        -0.8936   -8.8330   -9.7768 H         1 <0>         0.0000
     38 H15         0.5032   -7.8526  -10.2394 H         1 <0>         0.0000
     39 H16         0.6651   -9.6242  -10.1262 H         1 <0>         0.0000
     40 H17         0.2940   -5.6798   -3.0373 H         1 <0>         0.0000
@<TRIPOS>BOND
     1    1    2 ar
     2    1    3 ar
     3    1   24 1
     4    2    4 ar
     5    2   25 1
     6    3    8 ar
     7    3   26 1
     8    4    9 ar
     9    4   27 1
    10    5    6 ar
    11    5   10 ar
    12    5   28 1
    13    6   11 ar
    14    6   29 1
    15    7   11 ar
    16    7   12 ar
    17    7   30 1
    18    8    9 ar
    19    8   15 1
    20    9   16 1
    21   10   12 ar
    22   10   19 1
    23   11   21 1
    24   12   23 1
    25   13   18 1
    26   13   19 2
    27   13   23 1
    28   14   20 am
    29   14   21 am
    30   14   22 2
    31   15   17 1
    32   15   31 1
    33   15   32 1
    34   16   20 1
    35   16   33 1
    36   16   34 1
    37   17   20 1
    38   17   35 1
    39   17   36 1
    40   18   37 1
    41   18   38 1
    42   18   39 1
    43   21   40 1
