@<TRIPOS>MOLECULE
*****
   41    43     0     0     0
SMALL
NO_CHARGES

@<TRIPOS>ATOM
      1 C1         -7.8431    4.6995   -7.7978 C.ar      1 <0>         0.0000
      2 C2         -6.5510    4.4333   -7.3432 C.ar      1 <0>         0.0000
      3 C3         -0.6104    1.2160   -1.1800 C.ar      1 <0>         0.0000
      4 C4          0.6778    1.5610   -0.7776 C.ar      1 <0>         0.0000
      5 C5         -0.9840    3.1528   -4.3411 C.2       1 <0>         0.0000
      6 C6          0.9312    2.9872   -2.7340 C.ar      1 <0>         0.0000
      7 C7         -7.5177    3.2176   -5.4853 C.ar      1 <0>         0.0000
      8 C8         -0.3740    2.6456   -3.1496 C.ar      1 <0>         0.0000
      9 C9         -2.2652    2.8306   -4.7251 C.2       1 <0>         0.0000
     10 C10        -8.9839    4.2441   -7.1244 C.ar      1 <0>         0.0000
     11 C11        -8.8091    3.4879   -5.9444 C.ar      1 <0>         0.0000
     12 C12        -6.3849    3.6818   -6.1735 C.ar      1 <0>         0.0000
     13 C13        -1.1227    1.7618   -2.3573 C.ar      1 <0>         0.0000
     14 C14         1.4367    2.4454   -1.5625 C.ar      1 <0>         0.0000
     15 C15        -2.9995    1.8632   -3.8843 C.2       1 <0>         0.0000
     16 C16        -2.8047    3.3904   -5.9889 C.2       1 <0>         0.0000
     17 C17       -10.3652    4.5560   -7.6507 C.3       1 <0>         0.0000
     18 C18       -10.0045    2.9673   -5.1807 C.3       1 <0>         0.0000
     19 C19        -1.7746    3.8642   -7.0009 C.3       1 <0>         0.0000
     20 N1         -4.0307    3.6354   -6.3599 N.2       1 <0>         0.0000
     21 N2         -5.1209    3.3914   -5.6361 N.pl3     1 <0>         0.0000
     22 O1         -4.1046    1.3944   -4.1066 O.2       1 <0>         0.0000
     23 O2         -2.3856    1.4055   -2.7341 O.3       1 <0>         0.0000
     24 Br1         3.2079    2.9063   -0.9978 Br        1 <0>         0.0000
     25 H1         -7.9664    5.2824   -8.7084 H         1 <0>         0.0000
     26 H2         -5.6800    4.7922   -7.8787 H         1 <0>         0.0000
     27 H3         -1.2201    0.5339   -0.5959 H         1 <0>         0.0000
     28 H4          1.0933    1.1489    0.1358 H         1 <0>         0.0000
     29 H5         -0.3943    3.8273   -4.9517 H         1 <0>         0.0000
     30 H6          1.5264    3.6691   -3.3334 H         1 <0>         0.0000
     31 H7         -7.3835    2.6310   -4.5781 H         1 <0>         0.0000
     32 H8        -10.9335    3.6434   -7.8680 H         1 <0>         0.0000
     33 H9        -10.9559    5.1316   -6.9274 H         1 <0>         0.0000
     34 H10       -10.3106    5.1401   -8.5735 H         1 <0>         0.0000
     35 H11       -10.6600    3.7844   -4.8569 H         1 <0>         0.0000
     36 H12       -10.6143    2.2985   -5.7996 H         1 <0>         0.0000
     37 H13        -9.6970    2.4117   -4.2910 H         1 <0>         0.0000
     38 H14        -1.0026    3.1084   -7.1841 H         1 <0>         0.0000
     39 H15        -2.2841    4.0822   -7.9397 H         1 <0>         0.0000
     40 H16        -1.2689    4.7846   -6.6801 H         1 <0>         0.0000
     41 H17        -5.0715    2.6961   -4.8891 H         1 <0>         0.0000
@<TRIPOS>BOND
     1    1    2 ar
     2    1   10 ar
     3    1   25 1
     4    2   12 ar
     5    2   26 1
     6    3    4 ar
     7    3   13 ar
     8    3   27 1
     9    4   14 ar
    10    4   28 1
    11    5    8 1
    12    5    9 2
    13    5   29 1
    14    6    8 ar
    15    6   14 ar
    16    6   30 1
    17    7   11 ar
    18    7   12 ar
    19    7   31 1
    20    8   13 ar
    21    9   15 1
    22    9   16 1
    23   10   11 ar
    24   10   17 1
    25   11   18 1
    26   12   21 1
    27   13   23 1
    28   14   24 1
    29   15   22 2
    30   15   23 1
    31   16   19 1
    32   16   20 2
    33   17   32 1
    34   17   33 1
    35   17   34 1
    36   18   35 1
    37   18   36 1
    38   18   37 1
    39   19   38 1
    40   19   39 1
    41   19   40 1
    42   20   21 1
    43   21   41 1
