@<TRIPOS>MOLECULE
*****
   49    52     0     0     0
SMALL
NO_CHARGES

@<TRIPOS>ATOM
      1 C1          3.2798    4.8015    0.5401 C.2       1 <0>         0.0000
      2 C2          1.3619    3.4201    0.0376 C.2       1 <0>         0.0000
      3 C3         -2.6731   -0.5585    0.2493 C.2       1 <0>         0.0000
      4 C4         -2.2007    2.8642   -0.9644 C.3       1 <0>         0.0000
      5 C5         -3.0128    0.6363   -1.9957 C.3       1 <0>         0.0000
      6 C6         -0.9571    3.7212   -0.7276 C.3       1 <0>         0.0000
      7 C7         -1.1954   -2.5922    0.4986 C.3       1 <0>         0.0000
      8 C8         -2.2146   -1.5355    2.4444 C.3       1 <0>         0.0000
      9 C9          0.1827   -2.4062    1.1347 C.3       1 <0>         0.0000
     10 C10        -0.8241   -1.3531    3.0526 C.3       1 <0>         0.0000
     11 C11        -0.0153    1.4264   -0.2709 C.3       1 <0>         0.0000
     12 C12        -2.3810   -0.5553   -1.2704 C.3       1 <0>         0.0000
     13 C13        -1.9194    1.7309   -1.9625 C.3       1 <0>         0.0000
     14 C14        -0.6249    0.9523   -1.5959 C.3       1 <0>         0.0000
     15 C15         4.3002    5.8710    0.7758 C.3       1 <0>         0.0000
     16 C16         1.4004   -2.2782    3.2133 C.3       1 <0>         0.0000
     17 N1          3.4803    3.5365    0.7451 N.2       1 <0>         0.0000
     18 N2          2.4002    2.7354    0.4695 N.2       1 <0>         0.0000
     19 N3          0.1697    2.8766   -0.3209 N.pl3     1 <0>         0.0000
     20 N4         -2.1181   -1.5637    0.9832 N.am      1 <0>         0.0000
     21 N5          0.0842   -2.4063    2.5954 N.3       1 <0>         0.0000
     22 O1         -3.3752    0.3242    0.7601 O.2       1 <0>         0.0000
     23 O2         -0.9703   -0.4413   -1.5242 O.3       1 <0>         0.0000
     24 S1          1.6499    5.1631   -0.0540 S.3       1 <0>         0.0000
     25 H1         -2.5589    2.4467   -0.0204 H         1 <0>         0.0000
     26 H2         -2.9987    3.5082   -1.3476 H         1 <0>         0.0000
     27 H3         -3.2312    0.3461   -3.0265 H         1 <0>         0.0000
     28 H4         -3.9377    0.9561   -1.5149 H         1 <0>         0.0000
     29 H5         -0.6939    4.2673   -1.6461 H         1 <0>         0.0000
     30 H6         -1.1605    4.4699    0.0496 H         1 <0>         0.0000
     31 H7         -1.1034   -2.5538   -0.5831 H         1 <0>         0.0000
     32 H8         -1.5965   -3.5722    0.7856 H         1 <0>         0.0000
     33 H9         -2.6435   -2.4852    2.7859 H         1 <0>         0.0000
     34 H10        -2.8785   -0.7204    2.7287 H         1 <0>         0.0000
     35 H11         0.8315   -3.2338    0.8271 H         1 <0>         0.0000
     36 H12         0.6281   -1.4704    0.7510 H         1 <0>         0.0000
     37 H13        -0.4452   -0.3458    2.7918 H         1 <0>         0.0000
     38 H14        -0.8998   -1.4044    4.1444 H         1 <0>         0.0000
     39 H15        -0.6604    1.1495    0.5704 H         1 <0>         0.0000
     40 H16         0.9578    0.9657   -0.1107 H         1 <0>         0.0000
     41 H17        -2.7013   -1.5095   -1.7000 H         1 <0>         0.0000
     42 H18        -1.8016    2.1688   -2.9587 H         1 <0>         0.0000
     43 H19         0.1328    1.0417   -2.3795 H         1 <0>         0.0000
     44 H20         4.5258    6.4210   -0.1441 H         1 <0>         0.0000
     45 H21         3.9579    6.5944    1.5238 H         1 <0>         0.0000
     46 H22         5.2162    5.3987    1.1370 H         1 <0>         0.0000
     47 H23         2.0402   -3.1061    2.8912 H         1 <0>         0.0000
     48 H24         1.3020   -2.3295    4.3024 H         1 <0>         0.0000
     49 H25         1.9071   -1.3300    2.9556 H         1 <0>         0.0000
@<TRIPOS>BOND
     1    1   15 1
     2    1   17 2
     3    1   24 1
     4    2   18 2
     5    2   19 1
     6    2   24 1
     7    3   12 1
     8    3   20 am
     9    3   22 2
    10    4    6 1
    11    4   13 1
    12    4   25 1
    13    4   26 1
    14    5   12 1
    15    5   13 1
    16    5   27 1
    17    5   28 1
    18    6   19 1
    19    6   29 1
    20    6   30 1
    21    7    9 1
    22    7   20 1
    23    7   31 1
    24    7   32 1
    25    8   10 1
    26    8   20 1
    27    8   33 1
    28    8   34 1
    29    9   21 1
    30    9   35 1
    31    9   36 1
    32   10   21 1
    33   10   37 1
    34   10   38 1
    35   11   14 1
    36   11   19 1
    37   11   39 1
    38   11   40 1
    39   12   23 1
    40   12   41 1
    41   13   14 1
    42   13   42 1
    43   14   23 1
    44   14   43 1
    45   15   44 1
    46   15   45 1
    47   15   46 1
    48   16   21 1
    49   16   47 1
    50   16   48 1
    51   16   49 1
    52   17   18 1
