@<TRIPOS>MOLECULE
*****
   37    39     0     0     0
SMALL
NO_CHARGES

@<TRIPOS>ATOM
      1 C1          2.8789    0.5463    0.3167 C.1       1 <0>         0.0000
      2 C2         -1.5097    4.4790    2.0086 C.ar      1 <0>         0.0000
      3 C3         -2.7757    4.0412    2.4137 C.ar      1 <0>         0.0000
      4 C4         -0.6617    3.5943    1.3494 C.ar      1 <0>         0.0000
      5 C5         -3.1710    2.7241    2.1671 C.ar      1 <0>         0.0000
      6 C6          2.1855   -0.3947   -0.4967 C.2       1 <0>         0.0000
      7 C7         -1.0350    2.2575    1.0893 C.ar      1 <0>         0.0000
      8 C8          2.8652   -1.3885   -1.2896 C.2       1 <0>         0.0000
      9 C9         -2.3167    1.8255    1.5216 C.ar      1 <0>         0.0000
     10 C10         1.9941   -2.2200   -1.9427 C.2       1 <0>         0.0000
     11 C11         0.7941   -0.4937   -0.5594 C.2       1 <0>         0.0000
     12 C12        -0.0731    1.4493    0.3469 C.2       1 <0>         0.0000
     13 C13         4.3620   -1.5208   -1.4157 C.3       1 <0>         0.0000
     14 C14         2.3937   -3.3440   -2.8589 C.3       1 <0>         0.0000
     15 C15         4.7492   -2.8704   -2.0415 C.3       1 <0>         0.0000
     16 C16         3.8725   -3.1967   -3.2590 C.3       1 <0>         0.0000
     17 C17        -2.3386   -0.4477    2.1859 C.3       1 <0>         0.0000
     18 N1          3.4715    1.3068    0.9761 N.1       1 <0>         0.0000
     19 N2         -0.2088    0.1929    0.0819 N.2       1 <0>         0.0000
     20 O1         -2.7927    0.5644    1.2742 O.3       1 <0>         0.0000
     21 S1          0.3301   -1.8349   -1.5796 S.3       1 <0>         0.0000
     22 H1         -1.1925    5.5002    2.1990 H         1 <0>         0.0000
     23 H2         -3.4545    4.7224    2.9202 H         1 <0>         0.0000
     24 H3          0.3193    3.9312    1.0226 H         1 <0>         0.0000
     25 H4         -4.1527    2.3676    2.4658 H         1 <0>         0.0000
     26 H5          0.8052    2.0050   -0.0010 H         1 <0>         0.0000
     27 H6          4.7451   -0.6966   -2.0323 H         1 <0>         0.0000
     28 H7          4.8311   -1.4045   -0.4325 H         1 <0>         0.0000
     29 H8          2.2383   -4.3067   -2.3531 H         1 <0>         0.0000
     30 H9          1.7586   -3.3581   -3.7520 H         1 <0>         0.0000
     31 H10         5.8062   -2.8540   -2.3272 H         1 <0>         0.0000
     32 H11         4.6337   -3.6643   -1.2926 H         1 <0>         0.0000
     33 H12         4.2136   -4.1193   -3.7405 H         1 <0>         0.0000
     34 H13         3.9678   -2.3932   -3.9999 H         1 <0>         0.0000
     35 H14        -2.7669   -1.3868    1.8319 H         1 <0>         0.0000
     36 H15        -2.7001   -0.2327    3.1996 H         1 <0>         0.0000
     37 H16        -1.2484   -0.5247    2.1813 H         1 <0>         0.0000
@<TRIPOS>BOND
     1    1    6 1
     2    1   18 3
     3    2    3 ar
     4    2    4 ar
     5    2   22 1
     6    3    5 ar
     7    3   23 1
     8    4    7 ar
     9    4   24 1
    10    5    9 ar
    11    5   25 1
    12    6    8 1
    13    6   11 2
    14    7    9 ar
    15    7   12 1
    16    8   10 2
    17    8   13 1
    18    9   20 1
    19   10   14 1
    20   10   21 1
    21   11   19 1
    22   11   21 1
    23   12   19 2
    24   12   26 1
    25   13   15 1
    26   13   27 1
    27   13   28 1
    28   14   16 1
    29   14   29 1
    30   14   30 1
    31   15   16 1
    32   15   31 1
    33   15   32 1
    34   16   33 1
    35   16   34 1
    36   17   20 1
    37   17   35 1
    38   17   36 1
    39   17   37 1
