@<TRIPOS>MOLECULE
*****
   41    43     0     0     0
SMALL
NO_CHARGES

@<TRIPOS>ATOM
      1 C1         -8.4132    3.7460   -6.4574 C.ar      1 <0>         0.0000
      2 C2         -7.2317    3.2265   -5.9264 C.ar      1 <0>         0.0000
      3 C3         -2.1640   -0.5937   -1.4702 C.ar      1 <0>         0.0000
      4 C4         -2.7536   -1.8547   -1.5164 C.ar      1 <0>         0.0000
      5 C5         -3.0708    0.8078   -4.8058 C.2       1 <0>         0.0000
      6 C6         -3.5871   -1.4087   -3.7563 C.ar      1 <0>         0.0000
      7 C7         -5.9993    4.2874   -7.7178 C.ar      1 <0>         0.0000
      8 C8         -2.9951   -0.1301   -3.7185 C.ar      1 <0>         0.0000
      9 C9         -2.4994    2.0418   -4.7294 C.2       1 <0>         0.0000
     10 C10        -8.4197    4.5357   -7.6129 C.ar      1 <0>         0.0000
     11 C11        -7.1856    4.8064   -8.2451 C.ar      1 <0>         0.0000
     12 C12        -6.0118    3.4961   -6.5600 C.ar      1 <0>         0.0000
     13 C13        -2.2887    0.2613   -2.5673 C.ar      1 <0>         0.0000
     14 C14        -3.4633   -2.2510   -2.6614 C.ar      1 <0>         0.0000
     15 C15        -1.7867    2.4423   -3.5013 C.2       1 <0>         0.0000
     16 C16        -2.5421    3.0020   -5.8699 C.2       1 <0>         0.0000
     17 C17        -9.7156    5.0827   -8.1646 C.3       1 <0>         0.0000
     18 C18        -7.1373    5.6574   -9.4930 C.3       1 <0>         0.0000
     19 C19        -1.2382    3.5398   -6.3999 C.3       1 <0>         0.0000
     20 N1         -3.6295    3.3674   -6.4657 N.2       1 <0>         0.0000
     21 N2         -4.8381    2.9241   -6.0382 N.pl3     1 <0>         0.0000
     22 O1         -1.2745    3.5207   -3.2971 O.2       1 <0>         0.0000
     23 O2         -1.7027    1.4916   -2.4839 O.3       1 <0>         0.0000
     24 Br1        -4.2761   -3.9842   -2.7067 Br        1 <0>         0.0000
     25 H1         -9.3537    3.5309   -5.9547 H         1 <0>         0.0000
     26 H2         -7.2597    2.6167   -5.0251 H         1 <0>         0.0000
     27 H3         -1.6113   -0.2625   -0.5966 H         1 <0>         0.0000
     28 H4         -2.6660   -2.5279   -0.6702 H         1 <0>         0.0000
     29 H5         -3.5953    0.5152   -5.7129 H         1 <0>         0.0000
     30 H6         -4.1355   -1.7215   -4.6396 H         1 <0>         0.0000
     31 H7         -5.0492    4.4945   -8.1976 H         1 <0>         0.0000
     32 H8         -9.7116    6.1788   -8.2017 H         1 <0>         0.0000
     33 H9         -9.9024    4.7323   -9.1870 H         1 <0>         0.0000
     34 H10       -10.5651    4.7751   -7.5485 H         1 <0>         0.0000
     35 H11        -7.7345    5.2177  -10.3005 H         1 <0>         0.0000
     36 H12        -7.5423    6.6596   -9.3095 H         1 <0>         0.0000
     37 H13        -6.1129    5.7709   -9.8562 H         1 <0>         0.0000
     38 H14        -0.5603    2.7217   -6.6732 H         1 <0>         0.0000
     39 H15        -1.4333    4.1502   -7.2838 H         1 <0>         0.0000
     40 H16        -0.7322    4.1473   -5.6445 H         1 <0>         0.0000
     41 H17        -4.9086    2.5445   -5.0955 H         1 <0>         0.0000
@<TRIPOS>BOND
     1    1    2 ar
     2    1   10 ar
     3    1   25 1
     4    2   12 ar
     5    2   26 1
     6    3    4 ar
     7    3   13 ar
     8    3   27 1
     9    4   14 ar
    10    4   28 1
    11    5    8 1
    12    5    9 2
    13    5   29 1
    14    6    8 ar
    15    6   14 ar
    16    6   30 1
    17    7   11 ar
    18    7   12 ar
    19    7   31 1
    20    8   13 ar
    21    9   15 1
    22    9   16 1
    23   10   11 ar
    24   10   17 1
    25   11   18 1
    26   12   21 1
    27   13   23 1
    28   14   24 1
    29   15   22 2
    30   15   23 1
    31   16   19 1
    32   16   20 2
    33   17   32 1
    34   17   33 1
    35   17   34 1
    36   18   35 1
    37   18   36 1
    38   18   37 1
    39   19   38 1
    40   19   39 1
    41   19   40 1
    42   20   21 1
    43   21   41 1
