@<TRIPOS>MOLECULE
*****
   31    33     0     0     0
SMALL
NO_CHARGES

@<TRIPOS>ATOM
      1 C1         -1.7111   -1.0838   -0.5677 C.ar      1 <0>         0.0000
      2 C2         -0.5069   -1.2012    0.1386 C.ar      1 <0>         0.0000
      3 C3         -6.8448   -2.7669    0.4668 C.ar      1 <0>         0.0000
      4 C4         -6.0598   -3.5952   -0.3379 C.ar      1 <0>         0.0000
      5 C5         -2.4063   -2.2319   -0.9392 C.ar      1 <0>         0.0000
      6 C6         -6.3688   -2.3222    1.7045 C.ar      1 <0>         0.0000
      7 C7         -0.0062   -2.4612    0.4607 C.ar      1 <0>         0.0000
      8 C8         -4.2848   -3.5300    1.3179 C.ar      1 <0>         0.0000
      9 C9         -4.7729   -3.9619    0.0767 C.ar      1 <0>         0.0000
     10 C10        -1.9366   -3.5007   -0.5731 C.ar      1 <0>         0.0000
     11 C11        -5.0988   -2.7266    2.1056 C.ar      1 <0>         0.0000
     12 C12        -0.7161   -3.6238    0.1171 C.ar      1 <0>         0.0000
     13 C13        -3.9911   -4.9048   -0.7930 C.2       1 <0>         0.0000
     14 C14        -1.7952   -5.7679   -1.4567 C.3       1 <0>         0.0000
     15 C15        -1.0325   -6.4077   -0.3029 C.3       1 <0>         0.0000
     16 N1         -2.6346   -4.6794   -0.9499 N.am      1 <0>         0.0000
     17 O1         -4.5476   -5.8691   -1.3191 O.2       1 <0>         0.0000
     18 F1         -4.6345   -2.3173    3.3144 F         1 <0>         0.0000
     19 S1         -0.0189   -5.1785    0.6260 S.3       1 <0>         0.0000
     20 H1         -2.0967   -0.1059   -0.8405 H         1 <0>         0.0000
     21 H2          0.0504   -0.3135    0.4245 H         1 <0>         0.0000
     22 H3         -7.8368   -2.4714    0.1369 H         1 <0>         0.0000
     23 H4         -6.4346   -3.9699   -1.2850 H         1 <0>         0.0000
     24 H5         -3.3305   -2.1579   -1.5037 H         1 <0>         0.0000
     25 H6         -6.9620   -1.6852    2.3534 H         1 <0>         0.0000
     26 H7          0.9389   -2.5515    0.9904 H         1 <0>         0.0000
     27 H8         -3.2991   -3.8055    1.6771 H         1 <0>         0.0000
     28 H9         -1.1080   -5.3650   -2.2061 H         1 <0>         0.0000
     29 H10        -2.4476   -6.5029   -1.9288 H         1 <0>         0.0000
     30 H11        -1.7340   -6.8785    0.3892 H         1 <0>         0.0000
     31 H12        -0.3381   -7.1671   -0.6726 H         1 <0>         0.0000
@<TRIPOS>BOND
     1    1    2 ar
     2    1    5 ar
     3    1   20 1
     4    2    7 ar
     5    2   21 1
     6    3    4 ar
     7    3    6 ar
     8    3   22 1
     9    4    9 ar
    10    4   23 1
    11    5   10 ar
    12    5   24 1
    13    6   11 ar
    14    6   25 1
    15    7   12 ar
    16    7   26 1
    17    8    9 ar
    18    8   11 ar
    19    8   27 1
    20    9   13 1
    21   10   12 ar
    22   10   16 1
    23   11   18 1
    24   12   19 1
    25   13   16 am
    26   13   17 2
    27   14   15 1
    28   14   16 1
    29   14   28 1
    30   14   29 1
    31   15   19 1
    32   15   30 1
    33   15   31 1
