@<TRIPOS>MOLECULE
*****
   22    23     0     0     0
SMALL
NO_CHARGES

@<TRIPOS>ATOM
      1 C1         -2.6201   -4.0991   -4.6351 C.ar      1 <0>         0.0000
      2 C2         -1.4002   -4.4330   -5.2126 C.ar      1 <0>         0.0000
      3 C3         -2.7120   -2.9789   -3.8165 C.ar      1 <0>         0.0000
      4 C4         -0.3107   -3.6207   -4.9423 C.ar      1 <0>         0.0000
      5 C5         -1.5638   -2.2319   -3.6085 C.ar      1 <0>         0.0000
      6 C6         -0.6606    0.0559   -0.8689 C.3       1 <0>         0.0000
      7 C7         -1.2369   -1.2762   -1.2804 C.3       1 <0>         0.0000
      8 C8          0.0547    0.4907   -2.1294 C.3       1 <0>         0.0000
      9 C9         -1.6263   -1.0125   -2.7276 C.3       1 <0>         0.0000
     10 N1         -0.3612   -2.5249   -4.1523 N.ar      1 <0>         0.0000
     11 O1         -0.7055   -0.0247   -3.2322 O.3       1 <0>         0.0000
     12 H1         -3.4975   -4.7106   -4.8228 H         1 <0>         0.0000
     13 H2         -1.3052   -5.3016   -5.8541 H         1 <0>         0.0000
     14 H3         -3.6578   -2.7076   -3.3600 H         1 <0>         0.0000
     15 H4          0.6632   -3.8380   -5.3685 H         1 <0>         0.0000
     16 H5         -1.4735    0.7554   -0.6405 H         1 <0>         0.0000
     17 H6         -0.0007    0.0004    0.0005 H         1 <0>         0.0000
     18 H7         -0.4608   -2.0489   -1.2082 H         1 <0>         0.0000
     19 H8         -2.0833   -1.5940   -0.6643 H         1 <0>         0.0000
     20 H9          0.1358    1.5779   -2.2132 H         1 <0>         0.0000
     21 H10         1.0596    0.0586   -2.1852 H         1 <0>         0.0000
     22 H11        -2.6350   -0.5809   -2.7943 H         1 <0>         0.0000
@<TRIPOS>BOND
     1    1    2 ar
     2    1    3 ar
     3    1   12 1
     4    2    4 ar
     5    2   13 1
     6    3    5 ar
     7    3   14 1
     8    4   10 ar
     9    4   15 1
    10    5    9 1
    11    5   10 ar
    12    6    7 1
    13    6    8 1
    14    6   16 1
    15    6   17 1
    16    7    9 1
    17    7   18 1
    18    7   19 1
    19    8   11 1
    20    8   20 1
    21    8   21 1
    22    9   11 1
    23    9   22 1
