@<TRIPOS>MOLECULE
*****
   43    46     0     0     0
SMALL
NO_CHARGES

@<TRIPOS>ATOM
      1 C1          8.7742    0.6943   -3.7422 C.ar      1 <0>         0.0000
      2 C2          7.6028    0.6041   -2.9896 C.ar      1 <0>         0.0000
      3 C3          8.4277   -1.6038   -4.3772 C.ar      1 <0>         0.0000
      4 C4          9.1893   -0.4332   -4.4480 C.ar      1 <0>         0.0000
      5 C5          6.8980   -0.6036   -2.9751 C.ar      1 <0>         0.0000
      6 C6          5.2724    1.6100    0.3341 C.2       1 <0>         0.0000
      7 C7          4.2640    1.2550   -1.6504 C.2       1 <0>         0.0000
      8 C8          1.9777    2.4601    0.0583 C.2       1 <0>         0.0000
      9 C9          5.5854    2.3187    1.6131 C.3       1 <0>         0.0000
     10 C10         4.3837    3.1584    2.0802 C.3       1 <0>         0.0000
     11 C11         3.8133    3.9917    0.9219 C.3       1 <0>         0.0000
     12 C12        -0.3931    2.1903   -0.3880 C.3       1 <0>         0.0000
     13 C13        -1.4135    2.8518   -1.3064 C.3       1 <0>         0.0000
     14 C14         1.0075    3.3861   -2.0674 C.3       1 <0>         0.0000
     15 C15         3.3309    3.1293   -0.2630 C.3       1 <0>         0.0000
     16 C16         5.6026   -0.7922   -2.2068 C.3       1 <0>         0.0000
     17 N1          7.3075   -1.6852   -3.6549 N.ar      1 <0>         0.0000
     18 N2          5.8574    0.5469   -0.1445 N.2       1 <0>         0.0000
     19 N3          4.3203    2.0985   -0.5379 N.am      1 <0>         0.0000
     20 N4          5.2375    0.3266   -1.3722 N.am      1 <0>         0.0000
     21 N5          0.9121    2.7815   -0.7251 N.am      1 <0>         0.0000
     22 O1          3.5127    1.3508   -2.6233 O.2       1 <0>         0.0000
     23 O2          1.8753    1.7112    1.0333 O.2       1 <0>         0.0000
     24 S1         -0.5607    2.9770   -2.9221 S.3       1 <0>         0.0000
     25 Cl1        10.6506   -0.3974   -5.4140 Cl        1 <0>         0.0000
     26 H1          9.3511    1.6136   -3.7792 H         1 <0>         0.0000
     27 H2          7.2480    1.4555   -2.4196 H         1 <0>         0.0000
     28 H3          8.7369   -2.4953   -4.9193 H         1 <0>         0.0000
     29 H4          5.8843    1.5839    2.3644 H         1 <0>         0.0000
     30 H5          6.4506    2.9727    1.4424 H         1 <0>         0.0000
     31 H6          3.6035    2.5042    2.4732 H         1 <0>         0.0000
     32 H7          4.7018    3.8280    2.8854 H         1 <0>         0.0000
     33 H8          2.9770    4.6068    1.2672 H         1 <0>         0.0000
     34 H9          4.5839    4.6767    0.5473 H         1 <0>         0.0000
     35 H10        -0.6076    2.3709    0.6682 H         1 <0>         0.0000
     36 H11        -0.3608    1.1074   -0.5478 H         1 <0>         0.0000
     37 H12        -2.3113    2.2424   -1.4245 H         1 <0>         0.0000
     38 H13        -1.6980    3.8444   -0.9450 H         1 <0>         0.0000
     39 H14         1.1212    4.4729   -1.9942 H         1 <0>         0.0000
     40 H15         1.8297    2.9470   -2.6355 H         1 <0>         0.0000
     41 H16         3.2515    3.7542   -1.1533 H         1 <0>         0.0000
     42 H17         4.7841   -0.9420   -2.9161 H         1 <0>         0.0000
     43 H18         5.6800   -1.6898   -1.5879 H         1 <0>         0.0000
@<TRIPOS>BOND
     1    1    2 ar
     2    1    4 ar
     3    1   26 1
     4    2    5 ar
     5    2   27 1
     6    3    4 ar
     7    3   17 ar
     8    3   28 1
     9    4   25 1
    10    5   16 1
    11    5   17 ar
    12    6    9 1
    13    6   18 2
    14    6   19 1
    15    7   19 am
    16    7   20 am
    17    7   22 2
    18    8   15 1
    19    8   21 am
    20    8   23 2
    21    9   10 1
    22    9   29 1
    23    9   30 1
    24   10   11 1
    25   10   31 1
    26   10   32 1
    27   11   15 1
    28   11   33 1
    29   11   34 1
    30   12   13 1
    31   12   21 1
    32   12   35 1
    33   12   36 1
    34   13   24 1
    35   13   37 1
    36   13   38 1
    37   14   21 1
    38   14   24 1
    39   14   39 1
    40   14   40 1
    41   15   19 1
    42   15   41 1
    43   16   20 1
    44   16   42 1
    45   16   43 1
    46   18   20 1
