@<TRIPOS>MOLECULE
*****
   22    22     0     0     0
SMALL
NO_CHARGES

@<TRIPOS>ATOM
      1 C1         -0.3894    1.4266    0.6349 C.2       1 <0>         0.0000
      2 C2         -1.6252   -0.0061   -0.9555 C.2       1 <0>         0.0000
      3 C3         -0.3950   -1.2104    0.9969 C.3       1 <0>         0.0000
      4 C4         -0.5586    0.0133    0.0872 C.3       1 <0>         0.0000
      5 C5          0.7007   -0.8786    0.0274 C.3       1 <0>         0.0000
      6 C6          1.9764   -0.2782    0.6023 C.3       1 <0>         0.0000
      7 C7          0.9627   -1.7668   -1.1767 C.3       1 <0>         0.0000
      8 N1         -1.1402    1.7007    1.7550 N.am      1 <0>         0.0000
      9 O1          0.3794    2.2373    0.1393 O.2       1 <0>         0.0000
     10 O2         -2.1819    0.9878   -1.3847 O.2       1 <0>         0.0000
     11 O3         -1.9894   -1.2552   -1.3695 O.3       1 <0>         0.0000
     12 H1         -0.2217   -1.0116    2.0510 H         1 <0>         0.0000
     13 H2         -1.0418   -2.0555    0.7838 H         1 <0>         0.0000
     14 H3          2.4546    0.3888   -0.1196 H         1 <0>         0.0000
     15 H4          2.6712   -1.0901    0.8458 H         1 <0>         0.0000
     16 H5          1.7965    0.2963    1.5136 H         1 <0>         0.0000
     17 H6          1.3989   -1.1809   -1.9933 H         1 <0>         0.0000
     18 H7          0.0629   -2.2566   -1.5462 H         1 <0>         0.0000
     19 H8          1.6859   -2.5421   -0.8996 H         1 <0>         0.0000
     20 H9         -1.2189    2.6809    2.0028 H         1 <0>         0.0000
     21 H10        -1.9446    1.1198    1.9555 H         1 <0>         0.0000
     22 H11        -2.6870   -1.1124   -2.0377 H         1 <0>         0.0000
@<TRIPOS>BOND
     1    1    4 1
     2    1    8 am
     3    1    9 2
     4    2    4 1
     5    2   10 2
     6    2   11 1
     7    3    4 1
     8    3    5 1
     9    3   12 1
    10    3   13 1
    11    4    5 1
    12    5    6 1
    13    5    7 1
    14    6   14 1
    15    6   15 1
    16    6   16 1
    17    7   17 1
    18    7   18 1
    19    7   19 1
    20    8   20 1
    21    8   21 1
    22   11   22 1
