@<TRIPOS>MOLECULE
*****
   39    41     0     0     0
SMALL
NO_CHARGES

@<TRIPOS>ATOM
      1 C1          1.9323   -0.9453    0.0441 C.ar      1 <0>         0.0000
      2 C2         -4.2367   -6.1089   -1.6710 C.ar      1 <0>         0.0000
      3 C3          2.6481   -2.1215   -0.1772 C.ar      1 <0>         0.0000
      4 C4          0.5583   -0.9145   -0.1781 C.ar      1 <0>         0.0000
      5 C5         -2.9194   -5.8424   -2.0442 C.ar      1 <0>         0.0000
      6 C6         -5.1748   -5.0771   -1.6386 C.ar      1 <0>         0.0000
      7 C7         -3.4783   -3.5122   -2.3526 C.ar      1 <0>         0.0000
      8 C8          1.9986   -3.2775   -0.6344 C.ar      1 <0>         0.0000
      9 C9          0.6093   -3.2429   -0.8536 C.ar      1 <0>         0.0000
     10 C10        -0.1032   -2.0585   -0.6240 C.ar      1 <0>         0.0000
     11 C11        -2.5402   -4.5441   -2.3850 C.ar      1 <0>         0.0000
     12 C12        -4.7956   -3.7788   -1.9793 C.ar      1 <0>         0.0000
     13 C13         2.7977   -4.5432   -0.8147 C.3       1 <0>         0.0000
     14 C14         2.0568   -5.5923   -1.6388 C.3       1 <0>         0.0000
     15 C15         0.6195   -5.7192   -1.1580 C.3       1 <0>         0.0000
     16 N1         -0.0899   -4.4186   -1.3423 N.pl3     1 <0>         0.0000
     17 N2         -5.7972   -1.9412   -0.3286 N.pl3     1 <0>         0.0000
     18 O1         -0.4449   -5.2549   -3.7553 O.2       1 <0>         0.0000
     19 O2         -0.7878   -2.8140   -3.2336 O.2       1 <0>         0.0000
     20 O3         -5.5282   -1.4351   -2.8420 O.2       1 <0>         0.0000
     21 O4         -7.2980   -3.0654   -2.0952 O.2       1 <0>         0.0000
     22 F1         -1.4243   -1.9717   -0.7984 F         1 <0>         0.0000
     23 S1         -0.8737   -4.2069   -2.8567 S.o2      1 <0>         0.0000
     24 S2         -5.9704   -2.4878   -1.9382 S.o2      1 <0>         0.0000
     25 H1          2.4457   -0.0564    0.4022 H         1 <0>         0.0000
     26 H2         -4.5323   -7.1198   -1.4058 H         1 <0>         0.0000
     27 H3          3.7172   -2.1328    0.0182 H         1 <0>         0.0000
     28 H4          0.0010   -0.0015    0.0059 H         1 <0>         0.0000
     29 H5         -2.1967   -6.6537   -2.0655 H         1 <0>         0.0000
     30 H6         -6.1986   -5.2961   -1.3471 H         1 <0>         0.0000
     31 H7         -3.1825   -2.5001   -2.6180 H         1 <0>         0.0000
     32 H8          3.7474   -4.2872   -1.3076 H         1 <0>         0.0000
     33 H9          3.0448   -4.9770    0.1653 H         1 <0>         0.0000
     34 H10         2.0796   -5.3131   -2.6991 H         1 <0>         0.0000
     35 H11         2.5649   -6.5625   -1.5484 H         1 <0>         0.0000
     36 H12         0.0931   -6.5115   -1.7025 H         1 <0>         0.0000
     37 H13         0.6282   -5.9750   -0.0928 H         1 <0>         0.0000
     38 H14        -5.3463   -1.0311   -0.1746 H         1 <0>         0.0000
     39 H15        -6.5545   -2.1468    0.3344 H         1 <0>         0.0000
@<TRIPOS>BOND
     1    1    3 ar
     2    1    4 ar
     3    1   25 1
     4    2    5 ar
     5    2    6 ar
     6    2   26 1
     7    3    8 ar
     8    3   27 1
     9    4   10 ar
    10    4   28 1
    11    5   11 ar
    12    5   29 1
    13    6   12 ar
    14    6   30 1
    15    7   11 ar
    16    7   12 ar
    17    7   31 1
    18    8    9 ar
    19    8   13 1
    20    9   10 ar
    21    9   16 1
    22   10   22 1
    23   11   23 1
    24   12   24 1
    25   13   14 1
    26   13   32 1
    27   13   33 1
    28   14   15 1
    29   14   34 1
    30   14   35 1
    31   15   16 1
    32   15   36 1
    33   15   37 1
    34   16   23 1
    35   17   24 1
    36   17   38 1
    37   17   39 1
    38   18   23 2
    39   19   23 2
    40   20   24 2
    41   21   24 2
