@<TRIPOS>MOLECULE
*****
   37    37     0     0     0
SMALL
NO_CHARGES

@<TRIPOS>ATOM
      1 C1          9.3805   -1.3709   -1.2903 C.2       1 <0>         0.0000
      2 C2          7.6678   -1.2112    0.3043 C.2       1 <0>         0.0000
      3 C3         10.4855   -1.1700   -2.2845 C.2       1 <0>         0.0000
      4 C4          7.1963   -1.5517    8.0551 C.3       1 <0>         0.0000
      5 C5         13.6125   -3.6069   -2.2410 C.3       1 <0>         0.0000
      6 C6          6.4554   -1.1225    6.7842 C.3       1 <0>         0.0000
      7 C7         13.4015   -2.3664   -3.1147 C.3       1 <0>         0.0000
      8 C8          7.2326   -1.4499    5.5033 C.3       1 <0>         0.0000
      9 C9          6.4938   -1.0098    4.2320 C.3       1 <0>         0.0000
     10 C10        12.0321   -2.3344   -3.8071 C.3       1 <0>         0.0000
     11 C11         7.2887   -1.3437    2.9726 C.3       1 <0>         0.0000
     12 N1          8.9068   -2.5445   -0.9500 N.2       1 <0>         0.0000
     13 N2          7.9012   -2.4523   -0.0252 N.2       1 <0>         0.0000
     14 N3         10.9124   -2.3149   -2.8682 N.am      1 <0>         0.0000
     15 O1         10.9226   -0.0416   -2.5163 O.2       1 <0>         0.0000
     16 O2          6.4604    0.8055    1.5371 O.2       1 <0>         0.0000
     17 S1          8.6407   -0.0123   -0.4962 S.3       1 <0>         0.0000
     18 S2          6.3832   -0.7078    1.4889 S.o       1 <0>         0.0000
     19 H1          7.3803   -2.6323    8.0605 H         1 <0>         0.0000
     20 H2          8.1673   -1.0497    8.1352 H         1 <0>         0.0000
     21 H3          6.6198   -1.3072    8.9534 H         1 <0>         0.0000
     22 H4         12.8775   -3.6524   -1.4301 H         1 <0>         0.0000
     23 H5         13.5232   -4.5286   -2.8289 H         1 <0>         0.0000
     24 H6         14.6065   -3.6007   -1.7829 H         1 <0>         0.0000
     25 H7          6.2579   -0.0436    6.8199 H         1 <0>         0.0000
     26 H8          5.4740   -1.6130    6.7473 H         1 <0>         0.0000
     27 H9         14.1710   -2.3223   -3.8953 H         1 <0>         0.0000
     28 H10        13.5087   -1.4563   -2.5152 H         1 <0>         0.0000
     29 H11         7.4280   -2.5299    5.4614 H         1 <0>         0.0000
     30 H12         8.2146   -0.9597    5.5396 H         1 <0>         0.0000
     31 H13         6.3137    0.0703    4.2662 H         1 <0>         0.0000
     32 H14         5.5121   -1.4983    4.1897 H         1 <0>         0.0000
     33 H15        11.9514   -1.4434   -4.4344 H         1 <0>         0.0000
     34 H16        11.9058   -3.2128   -4.4485 H         1 <0>         0.0000
     35 H17         7.4127   -2.4204    2.8200 H         1 <0>         0.0000
     36 H18         8.2683   -0.8557    2.9672 H         1 <0>         0.0000
     37 H19        10.4928   -3.1799   -2.5468 H         1 <0>         0.0000
@<TRIPOS>BOND
     1    1    3 1
     2    1   12 2
     3    1   17 1
     4    2   13 2
     5    2   17 1
     6    2   18 1
     7    3   14 am
     8    3   15 2
     9    4    6 1
    10    4   19 1
    11    4   20 1
    12    4   21 1
    13    5    7 1
    14    5   22 1
    15    5   23 1
    16    5   24 1
    17    6    8 1
    18    6   25 1
    19    6   26 1
    20    7   10 1
    21    7   27 1
    22    7   28 1
    23    8    9 1
    24    8   29 1
    25    8   30 1
    26    9   11 1
    27    9   31 1
    28    9   32 1
    29   10   14 1
    30   10   33 1
    31   10   34 1
    32   11   18 1
    33   11   35 1
    34   11   36 1
    35   12   13 1
    36   14   37 1
    37   16   18 2
