@<TRIPOS>MOLECULE
*****
   49    51     0     0     0
SMALL
NO_CHARGES

@<TRIPOS>ATOM
      1 C1         -1.2141   -2.2797    5.9254 C.ar      1 <0>         0.0000
      2 C2         -1.1546   -1.0115    5.3578 C.ar      1 <0>         0.0000
      3 C3         -1.5127   -3.3974    5.1363 C.ar      1 <0>         0.0000
      4 C4         -1.6339   -1.9608    3.1458 C.ar      1 <0>         0.0000
      5 C5         -1.3546   -0.8665    3.9849 C.ar      1 <0>         0.0000
      6 C6         -1.7228   -3.2277    3.7547 C.ar      1 <0>         0.0000
      7 C7         -1.1601   -4.9688    8.2871 C.2       1 <0>         0.0000
      8 C8         -0.0367   -6.4863    6.5341 C.2       1 <0>         0.0000
      9 C9         -1.6592   -4.7249    5.8250 C.2       1 <0>         0.0000
     10 C10        -1.5558   -6.2571    8.9782 C.3       1 <0>         0.0000
     11 C11        -0.8299   -7.6905    7.0132 C.3       1 <0>         0.0000
     12 C12        -1.9636   -7.3637    7.9968 C.3       1 <0>         0.0000
     13 C13        -5.2761   -1.0531    0.3709 C.3       1 <0>         0.0000
     14 C14        -5.6723   -2.4381   -0.1439 C.3       1 <0>         0.0000
     15 C15        -3.5239   -1.9731   -0.9563 C.3       1 <0>         0.0000
     16 C16        -0.5743   -5.0852    6.8639 C.3       1 <0>         0.0000
     17 C17        -3.7510   -1.1212    0.3036 C.3       1 <0>         0.0000
     18 C18         0.4394    0.8771    2.6429 C.3       1 <0>         0.0000
     19 C19        -1.9035   -1.8122    1.6626 C.3       1 <0>         0.0000
     20 O1         -1.2591   -3.8742    8.8133 O.2       1 <0>         0.0000
     21 O2          1.0085   -6.5954    5.9196 O.2       1 <0>         0.0000
     22 O3         -2.5820   -5.4842    5.5924 O.2       1 <0>         0.0000
     23 O4         -2.1949    1.0881    2.3024 O.2       1 <0>         0.0000
     24 O5         -1.1823    1.7197    4.5553 O.2       1 <0>         0.0000
     25 O6         -4.7097   -2.7535   -1.1659 O.3       1 <0>         0.0000
     26 O7         -3.3136   -1.7761    1.5016 O.3       1 <0>         0.0000
     27 S1         -1.2163    0.8482    3.3724 S.o2      1 <0>         0.0000
     28 Cl1        -2.0556   -4.6219    2.7530 Cl        1 <0>         0.0000
     29 H1         -1.0627   -2.4030    6.9942 H         1 <0>         0.0000
     30 H2         -0.9631   -0.1356    5.9679 H         1 <0>         0.0000
     31 H3         -0.6755   -6.5723    9.5588 H         1 <0>         0.0000
     32 H4         -2.3415   -6.0239    9.7011 H         1 <0>         0.0000
     33 H5         -1.2177   -8.1942    6.1213 H         1 <0>         0.0000
     34 H6         -0.0977   -8.3735    7.4584 H         1 <0>         0.0000
     35 H7         -2.8519   -7.0509    7.4449 H         1 <0>         0.0000
     36 H8         -2.2312   -8.2643    8.5570 H         1 <0>         0.0000
     37 H9         -5.6377   -0.2713   -0.3046 H         1 <0>         0.0000
     38 H10        -5.6208   -0.8389    1.3843 H         1 <0>         0.0000
     39 H11        -5.6201   -3.1840    0.6598 H         1 <0>         0.0000
     40 H12        -6.6663   -2.4707   -0.5987 H         1 <0>         0.0000
     41 H13        -3.3593   -1.3339   -1.8338 H         1 <0>         0.0000
     42 H14        -2.6628   -2.6427   -0.8495 H         1 <0>         0.0000
     43 H15         0.2566   -4.3846    6.7801 H         1 <0>         0.0000
     44 H16        -3.2762   -0.1355    0.2433 H         1 <0>         0.0000
     45 H17         0.5862    1.8947    2.2745 H         1 <0>         0.0000
     46 H18         1.1656    0.6413    3.4216 H         1 <0>         0.0000
     47 H19         0.4932    0.1620    1.8213 H         1 <0>         0.0000
     48 H20        -1.4601   -0.8938    1.2720 H         1 <0>         0.0000
     49 H21        -1.4636   -2.6572    1.1207 H         1 <0>         0.0000
@<TRIPOS>BOND
     1    1    2 ar
     2    1    3 ar
     3    1   29 1
     4    2    5 ar
     5    2   30 1
     6    3    6 ar
     7    3    9 1
     8    4    5 ar
     9    4    6 ar
    10    4   19 1
    11    5   27 1
    12    6   28 1
    13    7   10 1
    14    7   16 1
    15    7   20 2
    16    8   11 1
    17    8   16 1
    18    8   21 2
    19    9   16 1
    20    9   22 2
    21   10   12 1
    22   10   31 1
    23   10   32 1
    24   11   12 1
    25   11   33 1
    26   11   34 1
    27   12   35 1
    28   12   36 1
    29   13   14 1
    30   13   17 1
    31   13   37 1
    32   13   38 1
    33   14   25 1
    34   14   39 1
    35   14   40 1
    36   15   17 1
    37   15   25 1
    38   15   41 1
    39   15   42 1
    40   16   43 1
    41   17   26 1
    42   17   44 1
    43   18   27 1
    44   18   45 1
    45   18   46 1
    46   18   47 1
    47   19   26 1
    48   19   48 1
    49   19   49 1
    50   23   27 2
    51   24   27 2
