@<TRIPOS>MOLECULE
*****
   23    24     0     0     0
SMALL
NO_CHARGES

@<TRIPOS>ATOM
      1 C1          1.8851   -1.0363   -0.1124 C.ar      1 <0>         0.0000
      2 C2          2.8783   -1.6520    2.0022 C.ar      1 <0>         0.0000
      3 C3          0.8066   -0.4630    0.5610 C.ar      1 <0>         0.0000
      4 C4          1.7997   -1.0786    2.6757 C.ar      1 <0>         0.0000
      5 C5          2.9210   -1.6309    0.6081 C.ar      1 <0>         0.0000
      6 C6          0.7638   -0.4841    1.9551 C.ar      1 <0>         0.0000
      7 C7          4.0316   -2.2203   -0.0857 C.2       1 <0>         0.0000
      8 C8         -0.1291    1.5849    2.9742 C.2       1 <0>         0.0000
      9 C9         -0.3892    0.1303    2.6742 C.3       1 <0>         0.0000
     10 N1          4.1223   -2.2257   -1.4459 N.2       1 <0>         0.0000
     11 N2          5.0587   -2.8099    0.5315 N.2       1 <0>         0.0000
     12 N3          5.2595   -2.8467   -1.7339 N.2       1 <0>         0.0000
     13 N4          5.7761   -3.1730   -0.5410 N.pl3     1 <0>         0.0000
     14 O1          0.9270    2.1549    2.7306 O.2       1 <0>         0.0000
     15 O2         -1.1810    2.1941    3.5766 O.3       1 <0>         0.0000
     16 H1          1.9030   -1.0121   -1.1995 H         1 <0>         0.0000
     17 H2          3.6781   -2.1116    2.5782 H         1 <0>         0.0000
     18 H3          0.0041   -0.0011   -0.0080 H         1 <0>         0.0000
     19 H4          1.7740   -1.0992    3.7620 H         1 <0>         0.0000
     20 H5         -0.6230   -0.4028    3.6041 H         1 <0>         0.0000
     21 H6         -1.3067    0.0716    2.0742 H         1 <0>         0.0000
     22 H7          6.6579   -3.6668   -0.4553 H         1 <0>         0.0000
     23 H8         -1.9701    1.6282    3.7159 H         1 <0>         0.0000
@<TRIPOS>BOND
     1    1    3 ar
     2    1    5 ar
     3    1   16 1
     4    2    4 ar
     5    2    5 ar
     6    2   17 1
     7    3    6 ar
     8    3   18 1
     9    4    6 ar
    10    4   19 1
    11    5    7 1
    12    6    9 1
    13    7   10 1
    14    7   11 2
    15    8    9 1
    16    8   14 2
    17    8   15 1
    18    9   20 1
    19    9   21 1
    20   10   12 2
    21   11   13 1
    22   12   13 1
    23   13   22 1
    24   15   23 1
