@<TRIPOS>MOLECULE
*****
   47    48     0     0     0
SMALL
NO_CHARGES

@<TRIPOS>ATOM
      1 C1          6.6064   -1.3142    4.2538 C.ar      1 <0>         0.0000
      2 C2          5.8648   -2.3331    3.6393 C.ar      1 <0>         0.0000
      3 C3          6.2357    0.0153    4.0484 C.ar      1 <0>         0.0000
      4 C4          4.7710   -2.0250    2.8336 C.ar      1 <0>         0.0000
      5 C5          5.1381    0.3413    3.2402 C.ar      1 <0>         0.0000
      6 C6         -2.1822    2.9732    3.8341 C.2       1 <0>         0.0000
      7 C7         -0.5202    3.0208    2.5521 C.2       1 <0>         0.0000
      8 C8          4.4035   -0.6851    2.6316 C.ar      1 <0>         0.0000
      9 C9         -0.2791   -1.9197   -0.6283 C.3       1 <0>         0.0000
     10 C10        -0.5563    0.2865   -1.7913 C.3       1 <0>         0.0000
     11 C11        -2.5448   -0.9214   -0.9056 C.3       1 <0>         0.0000
     12 C12         1.6479    0.7855    0.6954 C.3       1 <0>         0.0000
     13 C13         0.4873    0.0821    1.4100 C.3       1 <0>         0.0000
     14 C14        -1.4774    1.5546    0.7135 C.3       1 <0>         0.0000
     15 C15         2.8868    0.8577    1.5790 C.3       1 <0>         0.0000
     16 C16        -1.0622   -0.5912   -0.6245 C.3       1 <0>         0.0000
     17 C17        -0.9280    0.1096    0.7887 C.3       1 <0>         0.0000
     18 N1         -0.9189    3.4869    3.7273 N.2       1 <0>         0.0000
     19 N2         -2.5756    2.2304    2.8063 N.2       1 <0>         0.0000
     20 N3         -1.4908    2.2641    1.9835 N.pl3     1 <0>         0.0000
     21 O1         -1.7928   -0.5548    1.7257 O.3       1 <0>         0.0000
     22 O2          3.3137   -0.4838    1.8235 O.3       1 <0>         0.0000
     23 H1          7.4584   -1.5565    4.8824 H         1 <0>         0.0000
     24 H2          6.1406   -3.3738    3.7895 H         1 <0>         0.0000
     25 H3          6.8003    0.8161    4.5190 H         1 <0>         0.0000
     26 H4          4.1872   -2.8037    2.3509 H         1 <0>         0.0000
     27 H5          4.8719    1.3825    3.0990 H         1 <0>         0.0000
     28 H6         -2.8288    3.1557    4.6827 H         1 <0>         0.0000
     29 H7          0.4344    3.2124    2.0800 H         1 <0>         0.0000
     30 H8         -0.5810   -2.5694    0.2008 H         1 <0>         0.0000
     31 H9         -0.4840   -2.4671   -1.5541 H         1 <0>         0.0000
     32 H10         0.8029   -1.7715   -0.5686 H         1 <0>         0.0000
     33 H11        -1.2015    1.1541   -1.9599 H         1 <0>         0.0000
     34 H12        -0.5694   -0.3007   -2.7158 H         1 <0>         0.0000
     35 H13         0.4648    0.6460   -1.6527 H         1 <0>         0.0000
     36 H14        -3.1749   -0.0270   -0.9240 H         1 <0>         0.0000
     37 H15        -2.6298   -1.3987   -1.8879 H         1 <0>         0.0000
     38 H16        -2.9546   -1.5970   -0.1532 H         1 <0>         0.0000
     39 H17         1.3816    1.8094    0.4089 H         1 <0>         0.0000
     40 H18         1.9212    0.2628   -0.2247 H         1 <0>         0.0000
     41 H19         0.7743   -0.9620    1.5667 H         1 <0>         0.0000
     42 H20         0.3851    0.5106    2.4130 H         1 <0>         0.0000
     43 H21        -0.8875    2.1466    0.0136 H         1 <0>         0.0000
     44 H22        -2.5081    1.5357    0.3624 H         1 <0>         0.0000
     45 H23         3.6875    1.4180    1.0779 H         1 <0>         0.0000
     46 H24         2.6559    1.3570    2.5302 H         1 <0>         0.0000
     47 H25        -1.3129   -1.3062    2.1059 H         1 <0>         0.0000
@<TRIPOS>BOND
     1    1    3 ar
     2    1    2 ar
     3    1   23 1
     4    2    4 ar
     5    2   24 1
     6    3    5 ar
     7    3   25 1
     8    4    8 ar
     9    4   26 1
    10    5    8 ar
    11    5   27 1
    12    6   18 1
    13    6   19 2
    14    6   28 1
    15    7   18 2
    16    7   20 1
    17    7   29 1
    18    8   22 1
    19    9   16 1
    20    9   30 1
    21    9   31 1
    22    9   32 1
    23   10   16 1
    24   10   33 1
    25   10   34 1
    26   10   35 1
    27   11   16 1
    28   11   36 1
    29   11   37 1
    30   11   38 1
    31   12   13 1
    32   12   15 1
    33   12   39 1
    34   12   40 1
    35   13   17 1
    36   13   41 1
    37   13   42 1
    38   14   17 1
    39   14   20 1
    40   14   43 1
    41   14   44 1
    42   15   22 1
    43   15   45 1
    44   15   46 1
    45   16   17 1
    46   17   21 1
    47   19   20 1
    48   21   47 1
