@<TRIPOS>MOLECULE
*****
   39    41     0     0     0
SMALL
NO_CHARGES

@<TRIPOS>ATOM
      1 C1          1.8705    2.4301   -0.4927 C.ar      1 <0>         0.0000
      2 C2          3.3877    2.5284    1.8689 C.ar      1 <0>         0.0000
      3 C3          1.5658    1.5288    0.5484 C.ar      1 <0>         0.0000
      4 C4          2.9169    3.3383   -0.3721 C.ar      1 <0>         0.0000
      5 C5          3.6759    3.3762    0.8037 C.ar      1 <0>         0.0000
      6 C6          2.3394    1.6164    1.7234 C.ar      1 <0>         0.0000
      7 C7          0.1914   -0.2560   -0.5973 C.2       1 <0>         0.0000
      8 C8          0.4468    0.5722    0.4326 C.2       1 <0>         0.0000
      9 C9          4.2988    5.6505    1.5608 C.2       1 <0>         0.0000
     10 C10         3.3864    4.3958   -1.3479 C.3       1 <0>         0.0000
     11 C11         1.0471   -0.4203   -1.8307 C.3       1 <0>         0.0000
     12 C12        -1.0525   -1.1132   -0.6217 C.3       1 <0>         0.0000
     13 C13         4.7774    4.7938   -0.7950 C.3       1 <0>         0.0000
     14 C14         0.2323   -0.1160   -3.1042 C.3       1 <0>         0.0000
     15 C15        -1.8852   -0.8151   -1.8863 C.3       1 <0>         0.0000
     16 C16        -1.0438   -0.9687   -3.1615 C.3       1 <0>         0.0000
     17 C17         4.7390    4.4656    0.7171 C.3       1 <0>         0.0000
     18 O1          3.7459    6.6533    1.1548 O.2       1 <0>         0.0000
     19 O2          4.5723    5.4504    2.8790 O.3       1 <0>         0.0000
     20 Cl1         2.0078    0.5258    3.0678 Cl        1 <0>         0.0000
     21 H1          1.2541    2.4169   -1.3872 H         1 <0>         0.0000
     22 H2          3.9574    2.5651    2.7921 H         1 <0>         0.0000
     23 H3         -0.2242    0.5344    1.2898 H         1 <0>         0.0000
     24 H4          3.4337    4.0337   -2.3796 H         1 <0>         0.0000
     25 H5          2.7042    5.2534   -1.3299 H         1 <0>         0.0000
     26 H6          1.9501    0.1912   -1.7865 H         1 <0>         0.0000
     27 H7          1.3754   -1.4694   -1.8763 H         1 <0>         0.0000
     28 H8         -0.7622   -2.1741   -0.6359 H         1 <0>         0.0000
     29 H9         -1.6528   -0.9533    0.2795 H         1 <0>         0.0000
     30 H10         5.5485    4.1714   -1.2596 H         1 <0>         0.0000
     31 H11         5.0218    5.8406   -0.9831 H         1 <0>         0.0000
     32 H12        -0.0396    0.9480   -3.1115 H         1 <0>         0.0000
     33 H13         0.8494   -0.2935   -3.9928 H         1 <0>         0.0000
     34 H14        -2.7563   -1.4796   -1.9232 H         1 <0>         0.0000
     35 H15        -2.2686    0.2117   -1.8233 H         1 <0>         0.0000
     36 H16        -0.7631   -2.0242   -3.2826 H         1 <0>         0.0000
     37 H17        -1.6394   -0.6998   -4.0417 H         1 <0>         0.0000
     38 H18         5.7021    4.1203    1.1047 H         1 <0>         0.0000
     39 H19         4.2113    6.2223    3.3564 H         1 <0>         0.0000
@<TRIPOS>BOND
     1    1    3 ar
     2    1    4 ar
     3    1   21 1
     4    2    5 ar
     5    2    6 ar
     6    2   22 1
     7    3    6 ar
     8    3    8 1
     9    4    5 ar
    10    4   10 1
    11    5   17 1
    12    6   20 1
    13    7    8 2
    14    7   12 1
    15    7   11 1
    16    8   23 1
    17    9   17 1
    18    9   18 2
    19    9   19 1
    20   10   13 1
    21   10   24 1
    22   10   25 1
    23   11   14 1
    24   11   26 1
    25   11   27 1
    26   12   15 1
    27   12   28 1
    28   12   29 1
    29   13   17 1
    30   13   30 1
    31   13   31 1
    32   14   16 1
    33   14   32 1
    34   14   33 1
    35   15   16 1
    36   15   34 1
    37   15   35 1
    38   16   36 1
    39   16   37 1
    40   17   38 1
    41   19   39 1
