@<TRIPOS>MOLECULE
*****
   45    47     0     0     0
SMALL
NO_CHARGES

@<TRIPOS>ATOM
      1 C1          0.9749   -5.5754    2.7287 C.ar      1 <0>         0.0000
      2 C2         -0.3328   -6.8735    1.1930 C.ar      1 <0>         0.0000
      3 C3         -1.0201   -8.5818    3.6072 C.ar      1 <0>         0.0000
      4 C4          1.2541   -8.1646    4.2949 C.ar      1 <0>         0.0000
      5 C5          1.0701   -4.5523    1.7812 C.ar      1 <0>         0.0000
      6 C6         -0.2367   -5.8496    0.2532 C.ar      1 <0>         0.0000
      7 C7         -1.1283   -9.6065    4.5493 C.ar      1 <0>         0.0000
      8 C8          1.1659   -9.1853    5.2433 C.ar      1 <0>         0.0000
      9 C9          0.2713   -6.7579    2.4573 C.ar      1 <0>         0.0000
     10 C10         0.1679   -7.8437    3.4614 C.ar      1 <0>         0.0000
     11 C11         0.4626   -4.6582    0.5214 C.ar      1 <0>         0.0000
     12 C12        -0.0286   -9.8901    5.3528 C.ar      1 <0>         0.0000
     13 C13         3.8654   -4.0049   -1.6700 C.2       1 <0>         0.0000
     14 C14        -0.1494   -0.7863   -1.4852 C.3       1 <0>         0.0000
     15 C15         1.2710   -1.1285   -1.0215 C.3       1 <0>         0.0000
     16 C16        -0.8534   -2.0218   -2.0578 C.3       1 <0>         0.0000
     17 C17         1.2722   -2.2979   -0.0267 C.3       1 <0>         0.0000
     18 C18        -0.8405   -3.1909   -1.0615 C.3       1 <0>         0.0000
     19 C19         0.5782   -3.5730   -0.5579 C.3       1 <0>         0.0000
     20 C20         1.3906   -4.1748   -1.7395 C.3       1 <0>         0.0000
     21 N1          2.7102   -4.6496   -1.3476 N.am      1 <0>         0.0000
     22 O1          3.9495   -2.9975   -2.3647 O.2       1 <0>         0.0000
     23 F1         -0.1239  -10.8853    6.2724 F         1 <0>         0.0000
     24 H1          1.4343   -5.4357    3.7038 H         1 <0>         0.0000
     25 H2         -0.8610   -7.7866    0.9312 H         1 <0>         0.0000
     26 H3         -1.8833   -8.3353    2.9958 H         1 <0>         0.0000
     27 H4          2.1919   -7.6276    4.1849 H         1 <0>         0.0000
     28 H5          1.6229   -3.6585    2.0467 H         1 <0>         0.0000
     29 H6         -0.7119   -5.9943   -0.7130 H         1 <0>         0.0000
     30 H7         -2.0470  -10.1719    4.6724 H         1 <0>         0.0000
     31 H8          2.0052   -9.4430    5.8820 H         1 <0>         0.0000
     32 H9          4.7540   -4.5017   -1.2357 H         1 <0>         0.0000
     33 H10        -0.1249    0.0169   -2.2307 H         1 <0>         0.0000
     34 H11        -0.7291   -0.4076   -0.6316 H         1 <0>         0.0000
     35 H12         1.9068   -1.3675   -1.8803 H         1 <0>         0.0000
     36 H13         1.7297   -0.2577   -0.5390 H         1 <0>         0.0000
     37 H14        -1.8927   -1.7843   -2.3139 H         1 <0>         0.0000
     38 H15        -0.3683   -2.3183   -2.9960 H         1 <0>         0.0000
     39 H16         2.3037   -2.5243    0.2625 H         1 <0>         0.0000
     40 H17         0.7501   -1.9784    0.8843 H         1 <0>         0.0000
     41 H18        -1.4432   -2.9219   -0.1850 H         1 <0>         0.0000
     42 H19        -1.3286   -4.0615   -1.5129 H         1 <0>         0.0000
     43 H20         1.5496   -3.4363   -2.5231 H         1 <0>         0.0000
     44 H21         0.8327   -5.0080   -2.1796 H         1 <0>         0.0000
     45 H22         2.7654   -5.4264   -0.7000 H         1 <0>         0.0000
@<TRIPOS>BOND
     1    1    5 ar
     2    1    9 ar
     3    1   24 1
     4    2    6 ar
     5    2    9 ar
     6    2   25 1
     7    3    7 ar
     8    3   10 ar
     9    3   26 1
    10    4    8 ar
    11    4   10 ar
    12    4   27 1
    13    5   11 ar
    14    5   28 1
    15    6   11 ar
    16    6   29 1
    17    7   12 ar
    18    7   30 1
    19    8   12 ar
    20    8   31 1
    21    9   10 1
    22   11   19 1
    23   12   23 1
    24   13   21 am
    25   13   22 2
    26   13   32 1
    27   14   16 1
    28   14   15 1
    29   14   33 1
    30   14   34 1
    31   15   17 1
    32   15   35 1
    33   15   36 1
    34   16   18 1
    35   16   37 1
    36   16   38 1
    37   17   19 1
    38   17   39 1
    39   17   40 1
    40   18   19 1
    41   18   41 1
    42   18   42 1
    43   19   20 1
    44   20   21 1
    45   20   43 1
    46   20   44 1
    47   21   45 1
