@<TRIPOS>MOLECULE
*****
   49    49     0     0     0
SMALL
NO_CHARGES

@<TRIPOS>ATOM
      1 C1         -5.9334    0.3684    1.1013 C.2       1 <0>         0.0000
      2 C2         -5.8057   -2.5190   -0.4542 C.2       1 <0>         0.0000
      3 C3         -7.0712    1.3767    1.1913 C.3       1 <0>         0.0000
      4 C4         -7.9133    1.0983   -0.0632 C.3       1 <0>         0.0000
      5 C5         -6.9235    0.4417   -1.0560 C.3       1 <0>         0.0000
      6 C6         -8.8494   -7.7982    1.7556 C.3       1 <0>         0.0000
      7 C7         -8.8566   -5.6878    0.4214 C.3       1 <0>         0.0000
      8 C8         -5.8992   -7.1785    3.6260 C.3       1 <0>         0.0000
      9 C9         -4.5968   -7.8341    1.5456 C.3       1 <0>         0.0000
     10 C10        -5.0291   -1.1955   -0.5590 C.3       1 <0>         0.0000
     11 C11        -5.6132   -4.9688   -0.2508 C.3       1 <0>         0.0000
     12 C12        -6.0481   -5.2646    1.1940 C.3       1 <0>         0.0000
     13 C13        -8.1647   -6.4379    1.5709 C.3       1 <0>         0.0000
     14 C14        -5.9854   -7.5446    2.1312 C.3       1 <0>         0.0000
     15 C15        -6.3804    1.4430   -2.0758 C.3       1 <0>         0.0000
     16 N1         -5.8587   -0.0668   -0.2074 N.am      1 <0>         0.0000
     17 N2         -5.0301   -3.6335   -0.3922 N.am      1 <0>         0.0000
     18 N3         -6.7147   -6.5673    1.2979 N.3       1 <0>         0.0000
     19 O1         -5.1958   -0.0105    2.0014 O.2       1 <0>         0.0000
     20 O2         -7.0378   -2.5509   -0.4753 O.2       1 <0>         0.0000
     21 F1         -7.3718    1.8874   -2.8862 F         1 <0>         0.0000
     22 F2         -5.8168    2.5279   -1.4914 F         1 <0>         0.0000
     23 F3         -5.4322    0.8841   -2.8733 F         1 <0>         0.0000
     24 H1         -7.6132    1.2364    2.1275 H         1 <0>         0.0000
     25 H2         -6.6441    2.3844    1.1950 H         1 <0>         0.0000
     26 H3         -8.6940    0.3683    0.1601 H         1 <0>         0.0000
     27 H4         -8.3881    1.9876   -0.4805 H         1 <0>         0.0000
     28 H5         -7.3909   -0.3684   -1.6197 H         1 <0>         0.0000
     29 H6         -8.6374   -8.4561    0.9052 H         1 <0>         0.0000
     30 H7         -8.5501   -8.3095    2.6744 H         1 <0>         0.0000
     31 H8         -9.9326   -7.6512    1.8061 H         1 <0>         0.0000
     32 H9         -8.7609   -6.2592   -0.5090 H         1 <0>         0.0000
     33 H10        -8.4488   -4.6885    0.2533 H         1 <0>         0.0000
     34 H11        -9.9227   -5.5725    0.6450 H         1 <0>         0.0000
     35 H12        -5.3121   -6.2681    3.7885 H         1 <0>         0.0000
     36 H13        -6.8932   -7.0146    4.0540 H         1 <0>         0.0000
     37 H14        -5.4205   -7.9852    4.1923 H         1 <0>         0.0000
     38 H15        -3.9217   -6.9751    1.6246 H         1 <0>         0.0000
     39 H16        -4.6795   -8.1121    0.4905 H         1 <0>         0.0000
     40 H17        -4.1276   -8.6630    2.0860 H         1 <0>         0.0000
     41 H18        -4.1752   -1.1968    0.1234 H         1 <0>         0.0000
     42 H19        -4.6506   -1.0828   -1.5787 H         1 <0>         0.0000
     43 H20        -6.4737   -5.0345   -0.9167 H         1 <0>         0.0000
     44 H21        -4.8767   -5.7049   -0.5824 H         1 <0>         0.0000
     45 H22        -5.1650   -5.2188    1.8397 H         1 <0>         0.0000
     46 H23        -6.7021   -4.4546    1.5336 H         1 <0>         0.0000
     47 H24        -8.3265   -5.8523    2.4958 H         1 <0>         0.0000
     48 H25        -6.5400   -8.4818    2.0529 H         1 <0>         0.0000
     49 H26        -4.0381   -3.5172   -0.2294 H         1 <0>         0.0000
@<TRIPOS>BOND
     1    1    3 1
     2    1   16 am
     3    1   19 2
     4    2   10 1
     5    2   17 am
     6    2   20 2
     7    3    4 1
     8    3   24 1
     9    3   25 1
    10    4    5 1
    11    4   26 1
    12    4   27 1
    13    5   15 1
    14    5   16 1
    15    5   28 1
    16    6   13 1
    17    6   29 1
    18    6   30 1
    19    6   31 1
    20    7   13 1
    21    7   32 1
    22    7   33 1
    23    7   34 1
    24    8   14 1
    25    8   35 1
    26    8   36 1
    27    8   37 1
    28    9   14 1
    29    9   38 1
    30    9   39 1
    31    9   40 1
    32   10   16 1
    33   10   41 1
    34   10   42 1
    35   11   12 1
    36   11   17 1
    37   11   43 1
    38   11   44 1
    39   12   18 1
    40   12   45 1
    41   12   46 1
    42   13   18 1
    43   13   47 1
    44   14   18 1
    45   14   48 1
    46   15   21 1
    47   15   22 1
    48   15   23 1
    49   17   49 1
