@<TRIPOS>MOLECULE
*****
   56    59     0     0     0
SMALL
NO_CHARGES

@<TRIPOS>ATOM
      1 C1          2.0057   -3.7773    0.1339 C.ar      1 <0>         0.0000
      2 C2          1.2048   -2.3353    1.9047 C.ar      1 <0>         0.0000
      3 C3          9.2487    1.6651   -9.6532 C.ar      1 <0>         0.0000
      4 C4          8.5878    1.3390   -8.4686 C.ar      1 <0>         0.0000
      5 C5          2.2059   -4.8085    1.0531 C.ar      1 <0>         0.0000
      6 C6          1.3992   -3.3508    2.8369 C.ar      1 <0>         0.0000
      7 C7          6.5048    1.0217   -9.6913 C.ar      1 <0>         0.0000
      8 C8          1.5040   -2.5304    0.5444 C.ar      1 <0>         0.0000
      9 C9          8.5453    1.6666  -10.8610 C.ar      1 <0>         0.0000
     10 C10         7.1842    1.3458  -10.8692 C.ar      1 <0>         0.0000
     11 C11         7.2191    1.0177   -8.4833 C.ar      1 <0>         0.0000
     12 C12         1.8985   -4.5730    2.3898 C.ar      1 <0>         0.0000
     13 C13         1.2681   -1.3864   -0.3979 C.2       1 <0>         0.0000
     14 C14         9.0232    2.0041  -12.2589 C.3       1 <0>         0.0000
     15 C15         6.6279    1.4410  -12.2756 C.3       1 <0>         0.0000
     16 C16         7.9023    1.4213  -13.1570 C.3       1 <0>         0.0000
     17 C17         3.2402   -1.3178   -1.9537 C.3       1 <0>         0.0000
     18 C18         1.0153   -0.5024   -2.7631 C.3       1 <0>         0.0000
     19 C19         3.6975   -1.3849   -3.4115 C.3       1 <0>         0.0000
     20 C20         1.5541   -0.6046   -4.1897 C.3       1 <0>         0.0000
     21 C21         1.7117   -1.5156   -1.8499 C.3       1 <0>         0.0000
     22 C22         4.9366    0.0881   -5.7555 C.3       1 <0>         0.0000
     23 C23         3.4848   -0.3812   -5.6175 C.3       1 <0>         0.0000
     24 C24         5.2872    0.3707   -7.2095 C.3       1 <0>         0.0000
     25 N1          3.0042   -0.3938   -4.2354 N.3       1 <0>         0.0000
     26 O1          0.7592   -0.3483    0.0130 O.2       1 <0>         0.0000
     27 O2          6.6728    0.7090   -7.2624 O.3       1 <0>         0.0000
     28 F1          2.0912   -5.5679    3.2884 F         1 <0>         0.0000
     29 H1          2.2432   -3.9623   -0.9080 H         1 <0>         0.0000
     30 H2          0.8168   -1.3693    2.2114 H         1 <0>         0.0000
     31 H3         10.3084    1.9100   -9.6264 H         1 <0>         0.0000
     32 H4          9.1106    1.3213   -7.5166 H         1 <0>         0.0000
     33 H5          2.5906   -5.7777    0.7512 H         1 <0>         0.0000
     34 H6          1.1736   -3.2140    3.8901 H         1 <0>         0.0000
     35 H7          5.4490    0.7737   -9.7239 H         1 <0>         0.0000
     36 H8          9.0979    3.0931  -12.3848 H         1 <0>         0.0000
     37 H9         10.0086    1.5869  -12.4913 H         1 <0>         0.0000
     38 H10         5.9303    0.6329  -12.5195 H         1 <0>         0.0000
     39 H11         6.0806    2.3859  -12.3989 H         1 <0>         0.0000
     40 H12         7.7790    1.9693  -14.0957 H         1 <0>         0.0000
     41 H13         8.1475    0.3836  -13.4085 H         1 <0>         0.0000
     42 H14         3.7774   -2.0719   -1.3694 H         1 <0>         0.0000
     43 H15         3.4986   -0.3362   -1.5418 H         1 <0>         0.0000
     44 H16         1.1816    0.5065   -2.3773 H         1 <0>         0.0000
     45 H17        -0.0664   -0.6737   -2.7645 H         1 <0>         0.0000
     46 H18         4.7726   -1.1936   -3.4519 H         1 <0>         0.0000
     47 H19         3.5346   -2.4114   -3.8028 H         1 <0>         0.0000
     48 H20         1.2819   -1.5905   -4.6208 H         1 <0>         0.0000
     49 H21         1.0779    0.1583   -4.8147 H         1 <0>         0.0000
     50 H22         1.4764   -2.5261   -2.2082 H         1 <0>         0.0000
     51 H23         5.0811    0.9965   -5.1617 H         1 <0>         0.0000
     52 H24         5.6356   -0.6650   -5.3793 H         1 <0>         0.0000
     53 H25         2.8381    0.3072   -6.1750 H         1 <0>         0.0000
     54 H26         3.3693   -1.3757   -6.0941 H         1 <0>         0.0000
     55 H27         5.0941   -0.5122   -7.8360 H         1 <0>         0.0000
     56 H28         4.6831    1.2022   -7.5989 H         1 <0>         0.0000
@<TRIPOS>BOND
     1    1    5 ar
     2    1    8 ar
     3    1   29 1
     4    2    6 ar
     5    2    8 ar
     6    2   30 1
     7    3    4 ar
     8    3    9 ar
     9    3   31 1
    10    4   11 ar
    11    4   32 1
    12    5   12 ar
    13    5   33 1
    14    6   12 ar
    15    6   34 1
    16    7   10 ar
    17    7   11 ar
    18    7   35 1
    19    8   13 1
    20    9   10 ar
    21    9   14 1
    22   10   15 1
    23   11   27 1
    24   12   28 1
    25   13   21 1
    26   13   26 2
    27   14   16 1
    28   14   36 1
    29   14   37 1
    30   15   16 1
    31   15   38 1
    32   15   39 1
    33   16   40 1
    34   16   41 1
    35   17   19 1
    36   17   21 1
    37   17   42 1
    38   17   43 1
    39   18   20 1
    40   18   21 1
    41   18   44 1
    42   18   45 1
    43   19   25 1
    44   19   46 1
    45   19   47 1
    46   20   25 1
    47   20   48 1
    48   20   49 1
    49   21   50 1
    50   22   23 1
    51   22   24 1
    52   22   51 1
    53   22   52 1
    54   23   25 1
    55   23   53 1
    56   23   54 1
    57   24   27 1
    58   24   55 1
    59   24   56 1
