@<TRIPOS>MOLECULE
*****
   38    40     0     0     0
SMALL
NO_CHARGES

@<TRIPOS>ATOM
      1 C1          1.9628    2.0902   -0.5572 C.ar      1 <0>         0.0000
      2 C2          3.5869    2.3294    1.7226 C.ar      1 <0>         0.0000
      3 C3          1.6530    1.3079    0.5796 C.ar      1 <0>         0.0000
      4 C4          3.0629    2.9370   -0.5670 C.ar      1 <0>         0.0000
      5 C5          3.8912    3.0475    0.5641 C.ar      1 <0>         0.0000
      6 C6          2.4834    1.4759    1.7041 C.ar      1 <0>         0.0000
      7 C7          0.0908   -0.4601   -0.3452 C.2       1 <0>         0.0000
      8 C8          0.4810    0.4130    0.6037 C.2       1 <0>         0.0000
      9 C9          4.6775    5.3742    1.1732 C.2       1 <0>         0.0000
     10 C10         3.5412    3.8852   -1.6478 C.3       1 <0>         0.0000
     11 C11         0.8361   -0.7653   -1.6233 C.3       1 <0>         0.0000
     12 C12        -1.2124   -1.2178   -0.2310 C.3       1 <0>         0.0000
     13 C13         4.9821    4.2336   -1.1957 C.3       1 <0>         0.0000
     14 C14        -0.0435   -0.4672   -2.8535 C.3       1 <0>         0.0000
     15 C15        -2.1144   -0.9254   -1.4485 C.3       1 <0>         0.0000
     16 C16        -1.3839   -1.2138   -2.7692 C.3       1 <0>         0.0000
     17 C17         4.9885    4.0477    0.3394 C.3       1 <0>         0.0000
     18 O1          4.8065    5.2251    2.4150 O.co2     1 <0>         0.0000
     19 O2          4.3470    6.3820    0.4978 O.co2     1 <0>         0.0000
     20 Cl1         2.1410    0.5383    3.1779 Cl        1 <0>         0.0000
     21 H1          1.3008    2.0378   -1.4187 H         1 <0>         0.0000
     22 H2          4.1863    2.4564    2.6175 H         1 <0>         0.0000
     23 H3         -0.1329    0.4715    1.5027 H         1 <0>         0.0000
     24 H4          3.4902    3.4502   -2.6537 H         1 <0>         0.0000
     25 H5          2.9224    4.7904   -1.6406 H         1 <0>         0.0000
     26 H6          1.7815   -0.2235   -1.6765 H         1 <0>         0.0000
     27 H7          1.0796   -1.8398   -1.6305 H         1 <0>         0.0000
     28 H8         -1.0103   -2.3002   -0.2012 H         1 <0>         0.0000
     29 H9         -1.7310   -0.9595    0.6984 H         1 <0>         0.0000
     30 H10         5.6903    3.5357   -1.6643 H         1 <0>         0.0000
     31 H11         5.2566    5.2571   -1.4571 H         1 <0>         0.0000
     32 H12        -0.2302    0.6134   -2.9052 H         1 <0>         0.0000
     33 H13         0.4868   -0.7440   -3.7735 H         1 <0>         0.0000
     34 H14        -3.0360   -1.5189   -1.3883 H         1 <0>         0.0000
     35 H15        -2.4102    0.1316   -1.4208 H         1 <0>         0.0000
     36 H16        -1.1953   -2.2946   -2.8448 H         1 <0>         0.0000
     37 H17        -2.0226   -0.9469   -3.6209 H         1 <0>         0.0000
     38 H18         5.9488    3.6803    0.7150 H         1 <0>         0.0000
@<TRIPOS>BOND
     1    1    3 ar
     2    1    4 ar
     3    1   21 1
     4    2    5 ar
     5    2    6 ar
     6    2   22 1
     7    3    6 ar
     8    3    8 1
     9    4    5 ar
    10    4   10 1
    11    5   17 1
    12    6   20 1
    13    7    8 2
    14    7   12 1
    15    7   11 1
    16    8   23 1
    17    9   17 1
    18    9   18 1
    19    9   19 2
    20   10   13 1
    21   10   24 1
    22   10   25 1
    23   11   14 1
    24   11   26 1
    25   11   27 1
    26   12   15 1
    27   12   28 1
    28   12   29 1
    29   13   17 1
    30   13   30 1
    31   13   31 1
    32   14   16 1
    33   14   32 1
    34   14   33 1
    35   15   16 1
    36   15   34 1
    37   15   35 1
    38   16   36 1
    39   16   37 1
    40   17   38 1
