@<TRIPOS>MOLECULE
*****
   56    59     0     0     0
SMALL
NO_CHARGES

@<TRIPOS>ATOM
      1 C1          3.3378   -1.5909   -3.2495 C.ar      1 <0>         0.0000
      2 C2          1.8371   -1.8516   -5.1298 C.ar      1 <0>         0.0000
      3 C3         -0.1377    4.2070    4.1663 C.ar      1 <0>         0.0000
      4 C4         -0.6670    4.2631    2.8764 C.ar      1 <0>         0.0000
      5 C5          3.5657   -2.9677   -3.2302 C.ar      1 <0>         0.0000
      6 C6          2.0447   -3.2285   -5.1211 C.ar      1 <0>         0.0000
      7 C7          1.2277    5.6001    2.1315 C.ar      1 <0>         0.0000
      8 C8          2.4740   -1.0146   -4.1965 C.ar      1 <0>         0.0000
      9 C9          1.0777    4.8390    4.4440 C.ar      1 <0>         0.0000
     10 C10         1.7465    5.5281    3.4272 C.ar      1 <0>         0.0000
     11 C11         0.0111    4.9557    1.8572 C.ar      1 <0>         0.0000
     12 C12         2.9098   -3.7610   -4.1670 C.ar      1 <0>         0.0000
     13 C13         2.2037    0.4607   -4.2790 C.2       1 <0>         0.0000
     14 C14         1.8396    4.9415    5.7499 C.3       1 <0>         0.0000
     15 C15         3.0171    6.1564    3.9635 C.3       1 <0>         0.0000
     16 C16         3.2500    5.3934    5.2921 C.3       1 <0>         0.0000
     17 C17         1.8682    1.0877   -1.8416 C.3       1 <0>         0.0000
     18 C18         2.5876    2.8556   -3.4863 C.3       1 <0>         0.0000
     19 C19         0.4619    1.6824   -1.9114 C.3       1 <0>         0.0000
     20 C20         1.1609    3.4110   -3.4353 C.3       1 <0>         0.0000
     21 C21         2.6720    1.3609   -3.1371 C.3       1 <0>         0.0000
     22 C22        -0.7142    5.2561   -1.7310 C.3       1 <0>         0.0000
     23 C23        -0.7954    3.7529   -2.0290 C.3       1 <0>         0.0000
     24 C24         0.0850    5.5559   -0.4715 C.3       1 <0>         0.0000
     25 N1          0.5221    3.1253   -2.1452 N.3       1 <0>         0.0000
     26 O1          1.6070    0.9135   -5.2511 O.2       1 <0>         0.0000
     27 O2         -0.5963    4.9444    0.6297 O.3       1 <0>         0.0000
     28 F1          3.1215   -5.0987   -4.1513 F         1 <0>         0.0000
     29 H1          3.8504   -0.9730   -2.5203 H         1 <0>         0.0000
     30 H2          1.1773   -1.3969   -5.8617 H         1 <0>         0.0000
     31 H3         -0.6730    3.6650    4.9431 H         1 <0>         0.0000
     32 H4         -1.6043    3.7726    2.6296 H         1 <0>         0.0000
     33 H5          4.2347   -3.4266   -2.5089 H         1 <0>         0.0000
     34 H6          1.5558   -3.8871   -5.8324 H         1 <0>         0.0000
     35 H7          1.7639    6.1413    1.3592 H         1 <0>         0.0000
     36 H8          1.3807    5.6970    6.4028 H         1 <0>         0.0000
     37 H9          1.8608    4.0027    6.3134 H         1 <0>         0.0000
     38 H10         3.8634    6.0756    3.2732 H         1 <0>         0.0000
     39 H11         2.8560    7.2273    4.1500 H         1 <0>         0.0000
     40 H12         3.7705    5.9950    6.0430 H         1 <0>         0.0000
     41 H13         3.8633    4.5077    5.0935 H         1 <0>         0.0000
     42 H14         2.3983    1.5548   -1.0042 H         1 <0>         0.0000
     43 H15         1.8012    0.0156   -1.6344 H         1 <0>         0.0000
     44 H16         3.0050    3.0333   -4.4817 H         1 <0>         0.0000
     45 H17         3.2007    3.4048   -2.7623 H         1 <0>         0.0000
     46 H18        -0.1289    1.1654   -2.6931 H         1 <0>         0.0000
     47 H19        -0.0445    1.5096   -0.9565 H         1 <0>         0.0000
     48 H20         1.2062    4.4957   -3.5725 H         1 <0>         0.0000
     49 H21         0.5711    2.9984   -4.2701 H         1 <0>         0.0000
     50 H22         3.7225    1.1107   -2.9443 H         1 <0>         0.0000
     51 H23        -0.2548    5.7996   -2.5643 H         1 <0>         0.0000
     52 H24        -1.7316    5.6489   -1.6216 H         1 <0>         0.0000
     53 H25        -1.3215    3.2747   -1.1983 H         1 <0>         0.0000
     54 H26        -1.4067    3.5892   -2.9360 H         1 <0>         0.0000
     55 H27         1.0917    5.1334   -0.5632 H         1 <0>         0.0000
     56 H28         0.1610    6.6390   -0.3046 H         1 <0>         0.0000
@<TRIPOS>BOND
     1    1    5 ar
     2    1    8 ar
     3    1   29 1
     4    2    6 ar
     5    2    8 ar
     6    2   30 1
     7    3    4 ar
     8    3    9 ar
     9    3   31 1
    10    4   11 ar
    11    4   32 1
    12    5   12 ar
    13    5   33 1
    14    6   12 ar
    15    6   34 1
    16    7   10 ar
    17    7   11 ar
    18    7   35 1
    19    8   13 1
    20    9   10 ar
    21    9   14 1
    22   10   15 1
    23   11   27 1
    24   12   28 1
    25   13   21 1
    26   13   26 2
    27   14   16 1
    28   14   36 1
    29   14   37 1
    30   15   16 1
    31   15   38 1
    32   15   39 1
    33   16   40 1
    34   16   41 1
    35   17   19 1
    36   17   21 1
    37   17   42 1
    38   17   43 1
    39   18   20 1
    40   18   21 1
    41   18   44 1
    42   18   45 1
    43   19   25 1
    44   19   46 1
    45   19   47 1
    46   20   25 1
    47   20   48 1
    48   20   49 1
    49   21   50 1
    50   22   23 1
    51   22   24 1
    52   22   51 1
    53   22   52 1
    54   23   25 1
    55   23   53 1
    56   23   54 1
    57   24   27 1
    58   24   55 1
    59   24   56 1
