@<TRIPOS>MOLECULE
*****
   15    15     0     0     0
SMALL
NO_CHARGES

@<TRIPOS>ATOM
      1 C1         -0.2481    0.8083   -2.0428 C.2       1 <0>         0.0000
      2 C2         -0.9393    0.5200   -3.1917 C.2       1 <0>         0.0000
      3 C3         -0.5271   -0.1376   -1.0202 C.2       1 <0>         0.0000
      4 C4         -1.4102   -1.1298   -1.3694 C.2       1 <0>         0.0000
      5 C5         -1.8638   -2.2338   -0.4793 C.2       1 <0>         0.0000
      6 N1         -2.7446   -3.1369   -1.0108 N.am      1 <0>         0.0000
      7 N2          0.1141   -0.0141    0.3001 N.pl3     1 <0>         0.0000
      8 O1         -0.4599    0.6912    1.1280 O.3       1 <0>         0.0000
      9 O2         -1.4533   -2.3098    0.6742 O.2       1 <0>         0.0000
     10 O3          1.2047   -0.5651    0.4382 O.2       1 <0>         0.0000
     11 S1         -1.9199   -0.8918   -3.0226 S.3       1 <0>         0.0000
     12 H1          0.4260    1.6491   -1.9253 H         1 <0>         0.0000
     13 H2         -0.9263    1.0611   -4.1291 H         1 <0>         0.0000
     14 H3         -3.0567   -3.8894   -0.4105 H         1 <0>         0.0000
     15 H4         -3.0935   -3.0970   -1.9580 H         1 <0>         0.0000
@<TRIPOS>BOND
     1    1    2 2
     2    1    3 1
     3    1   12 1
     4    2   11 1
     5    2   13 1
     6    3    4 2
     7    3    7 1
     8    4    5 1
     9    4   11 1
    10    5    6 am
    11    5    9 2
    12    6   14 1
    13    6   15 1
    14    7    8 1
    15    7   10 2
