@<TRIPOS>MOLECULE
*****
   37    39     0     0     0
SMALL
NO_CHARGES

@<TRIPOS>ATOM
      1 C1         -0.6117    1.8052    0.3783 C.ar      1 <0>         0.0000
      2 C2          0.3151    0.8814   -0.1067 C.ar      1 <0>         0.0000
      3 C3         -1.9094    1.3576    0.6465 C.ar      1 <0>         0.0000
      4 C4         -1.1094    0.2041   -3.2958 C.2       1 <0>         0.0000
      5 C5         -0.0897   -0.4380   -0.3201 C.ar      1 <0>         0.0000
      6 C6         -0.5694   -1.0467   -3.2737 C.2       1 <0>         0.0000
      7 C7         -1.4150   -0.7956    0.0109 C.ar      1 <0>         0.0000
      8 C8         -1.3739   -2.1956   -3.6719 C.2       1 <0>         0.0000
      9 C9         -3.2425   -0.5953   -4.0945 C.2       1 <0>         0.0000
     10 C10         0.7279   -2.7522   -0.3327 C.3       1 <0>         0.0000
     11 C11        -0.6002   -3.4658   -0.5624 C.3       1 <0>         0.0000
     12 C12        -2.9681    1.7901   -3.6358 C.3       1 <0>         0.0000
     13 C13        -3.5300   -2.9925   -4.5045 C.3       1 <0>         0.0000
     14 N1         -2.3028    0.0897    0.4814 N.ar      1 <0>         0.0000
     15 N2         -2.3876    0.4415   -3.6780 N.am      1 <0>         0.0000
     16 N3         -2.6774   -1.8631   -4.1051 N.am      1 <0>         0.0000
     17 N4          0.8059   -1.3902   -0.8858 N.pl3     1 <0>         0.0000
     18 O1         -1.0182   -3.3682   -3.6631 O.2       1 <0>         0.0000
     19 O2         -4.3943   -0.3531   -4.4245 O.2       1 <0>         0.0000
     20 O3          1.7567   -2.3892   -3.0287 O.2       1 <0>         0.0000
     21 O4          1.6569    0.1428   -2.7174 O.2       1 <0>         0.0000
     22 S1         -2.0782   -2.4287   -0.1796 S.3       1 <0>         0.0000
     23 S2          1.0693   -1.1910   -2.5715 S.o2      1 <0>         0.0000
     24 H1         -0.3370    2.8412    0.5521 H         1 <0>         0.0000
     25 H2          1.3337    1.1619   -0.3540 H         1 <0>         0.0000
     26 H3         -2.6686    2.0449    1.0163 H         1 <0>         0.0000
     27 H4         -0.5224    1.0656   -2.9999 H         1 <0>         0.0000
     28 H5          0.9339   -2.6434    0.7357 H         1 <0>         0.0000
     29 H6          1.5327   -3.3404   -0.7763 H         1 <0>         0.0000
     30 H7         -0.6806   -3.7987   -1.5961 H         1 <0>         0.0000
     31 H8         -0.6611   -4.3379    0.0947 H         1 <0>         0.0000
     32 H9         -3.3213    2.0752   -4.6280 H         1 <0>         0.0000
     33 H10        -2.1991    2.4848   -3.2984 H         1 <0>         0.0000
     34 H11        -3.8117    1.8064   -2.9437 H         1 <0>         0.0000
     35 H12        -3.7303   -3.6238   -3.6356 H         1 <0>         0.0000
     36 H13        -3.0077   -3.5861   -5.2556 H         1 <0>         0.0000
     37 H14        -4.4593   -2.5925   -4.9020 H         1 <0>         0.0000
@<TRIPOS>BOND
     1    1    2 ar
     2    1    3 ar
     3    1   24 1
     4    2    5 ar
     5    2   25 1
     6    3   14 ar
     7    3   26 1
     8    4    6 2
     9    4   15 1
    10    4   27 1
    11    5    7 ar
    12    5   17 1
    13    6    8 1
    14    6   23 1
    15    7   14 ar
    16    7   22 1
    17    8   16 am
    18    8   18 2
    19    9   15 am
    20    9   16 am
    21    9   19 2
    22   10   11 1
    23   10   17 1
    24   10   28 1
    25   10   29 1
    26   11   22 1
    27   11   30 1
    28   11   31 1
    29   12   15 1
    30   12   32 1
    31   12   33 1
    32   12   34 1
    33   13   16 1
    34   13   35 1
    35   13   36 1
    36   13   37 1
    37   17   23 1
    38   20   23 2
    39   21   23 2
