@<TRIPOS>MOLECULE
*****
   41    44     0     0     0
SMALL
NO_CHARGES

@<TRIPOS>ATOM
      1 C1          3.4297   -7.3711    6.6486 C.ar      1 <0>         0.0000
      2 C2          2.0947   -7.0494    6.9662 C.ar      1 <0>         0.0000
      3 C3          3.0368   -1.8903    0.7337 C.ar      1 <0>         0.0000
      4 C4          3.9877   -7.0326    5.4128 C.ar      1 <0>         0.0000
      5 C5          1.2732   -6.3741    6.0564 C.ar      1 <0>         0.0000
      6 C6          2.5309   -0.5934    0.8232 C.ar      1 <0>         0.0000
      7 C7          1.3250   -0.9565   -1.2587 C.ar      1 <0>         0.0000
      8 C8          2.6991   -2.7465   -0.3295 C.ar      1 <0>         0.0000
      9 C9          3.1810   -6.3596    4.4872 C.ar      1 <0>         0.0000
     10 C10         1.8389   -6.0446    4.8241 C.ar      1 <0>         0.0000
     11 C11         1.8512   -2.2523   -1.3388 C.ar      1 <0>         0.0000
     12 C12         1.6655   -0.1463   -0.1783 C.ar      1 <0>         0.0000
     13 C13         2.3668   -5.3417    2.7877 C.2       1 <0>         0.0000
     14 C14         3.2365   -4.1375   -0.3676 C.2       1 <0>         0.0000
     15 C15         4.0613   -4.5602   -1.5563 C.3       1 <0>         0.0000
     16 C16         3.2053   -4.7468   -2.8213 C.3       1 <0>         0.0000
     17 C17         2.4996   -3.4819   -3.2978 C.3       1 <0>         0.0000
     18 C18        -0.0504   -4.9794    3.5064 C.3       1 <0>         0.0000
     19 N1          3.4827   -5.8897    3.2108 N.2       1 <0>         0.0000
     20 N2          3.0244   -5.0253    0.5425 N.2       1 <0>         0.0000
     21 N3          1.3238   -5.4006    3.7023 N.pl3     1 <0>         0.0000
     22 N4          2.1434   -4.7352    1.5557 N.pl3     1 <0>         0.0000
     23 O1          1.4571   -3.0188   -2.4077 O.3       1 <0>         0.0000
     24 Br1         0.9497    1.6284   -0.0776 Br        1 <0>         0.0000
     25 H1          4.0365   -7.8933    7.3837 H         1 <0>         0.0000
     26 H2          1.6949   -7.3289    7.9372 H         1 <0>         0.0000
     27 H3          3.7170   -2.2508    1.5018 H         1 <0>         0.0000
     28 H4          5.0166   -7.2795    5.1666 H         1 <0>         0.0000
     29 H5          0.2463   -6.1224    6.3082 H         1 <0>         0.0000
     30 H6          2.8053    0.0539    1.6492 H         1 <0>         0.0000
     31 H7          0.6639   -0.6099   -2.0455 H         1 <0>         0.0000
     32 H8          4.8374   -3.8081   -1.7494 H         1 <0>         0.0000
     33 H9          4.5544   -5.5022   -1.3042 H         1 <0>         0.0000
     34 H10         3.8489   -5.0913   -3.6409 H         1 <0>         0.0000
     35 H11         2.4578   -5.5279   -2.6456 H         1 <0>         0.0000
     36 H12         3.2169   -2.6664   -3.4570 H         1 <0>         0.0000
     37 H13         1.9824   -3.6725   -4.2413 H         1 <0>         0.0000
     38 H14        -0.2483   -4.0068    3.9724 H         1 <0>         0.0000
     39 H15        -0.2572   -4.9143    2.4364 H         1 <0>         0.0000
     40 H16        -0.7252   -5.7211    3.9427 H         1 <0>         0.0000
     41 H17         1.7649   -3.7884    1.5912 H         1 <0>         0.0000
@<TRIPOS>BOND
     1    1    2 ar
     2    1    4 ar
     3    1   25 1
     4    2    5 ar
     5    2   26 1
     6    3    6 ar
     7    3    8 ar
     8    3   27 1
     9    4    9 ar
    10    4   28 1
    11    5   10 ar
    12    5   29 1
    13    6   12 ar
    14    6   30 1
    15    7   11 ar
    16    7   12 ar
    17    7   31 1
    18    8   11 ar
    19    8   14 1
    20    9   10 ar
    21    9   19 1
    22   10   21 1
    23   11   23 1
    24   12   24 1
    25   13   19 2
    26   13   21 1
    27   13   22 1
    28   14   15 1
    29   14   20 2
    30   15   16 1
    31   15   32 1
    32   15   33 1
    33   16   17 1
    34   16   34 1
    35   16   35 1
    36   17   23 1
    37   17   36 1
    38   17   37 1
    39   18   21 1
    40   18   38 1
    41   18   39 1
    42   18   40 1
    43   20   22 1
    44   22   41 1
