@<TRIPOS>MOLECULE
*****
   35    37     0     0     0
SMALL
NO_CHARGES

@<TRIPOS>ATOM
      1 C1         -1.5855   -2.7509    1.2533 C.ar      1 <0>         0.0000
      2 C2         -0.7359   -1.7594    3.5808 C.ar      1 <0>         0.0000
      3 C3         -0.1883    1.3478    2.5684 C.2       1 <0>         0.0000
      4 C4         -0.1244   -1.7579    4.8865 C.2       1 <0>         0.0000
      5 C5          1.2178    1.3672    2.8623 C.2       1 <0>         0.0000
      6 C6         -0.2353    1.4786    1.2028 C.2       1 <0>         0.0000
      7 C7         -1.7424   -1.0828    2.8484 C.ar      1 <0>         0.0000
      8 C8         -0.1947   -2.8937    2.9632 C.ar      1 <0>         0.0000
      9 C9         -0.4057   -0.9108    6.0909 C.3       1 <0>         0.0000
     10 C10         1.9148    1.2452    4.1836 C.3       1 <0>         0.0000
     11 C11        -1.3343    1.5110    0.1953 C.3       1 <0>         0.0000
     12 C12        -3.5769    0.5122    2.6954 C.3       1 <0>         0.0000
     13 C13        -1.3305    1.2212    3.5466 C.3       1 <0>         0.0000
     14 N1         -2.1837   -1.6326    1.7030 N.ar      1 <0>         0.0000
     15 N2         -0.5609   -3.4179    1.7953 N.ar      1 <0>         0.0000
     16 N3          0.7303   -2.7491    4.9953 N.2       1 <0>         0.0000
     17 N4          1.9408    1.5060    1.7709 N.2       1 <0>         0.0000
     18 N5         -2.2834    0.1199    3.2599 N.pl3     1 <0>         0.0000
     19 O1          1.0205    1.5697    0.7145 O.3       1 <0>         0.0000
     20 O2          0.7199   -3.4667    3.7704 O.3       1 <0>         0.0000
     21 H1         -1.9766   -3.1510    0.3199 H         1 <0>         0.0000
     22 H2         -1.4803   -0.7285    6.1798 H         1 <0>         0.0000
     23 H3         -0.0538   -1.4258    6.9871 H         1 <0>         0.0000
     24 H4          0.0993    0.0565    6.0388 H         1 <0>         0.0000
     25 H5          1.8687    0.2172    4.5547 H         1 <0>         0.0000
     26 H6          2.9668    1.5137    4.0683 H         1 <0>         0.0000
     27 H7          1.4682    1.9039    4.9348 H         1 <0>         0.0000
     28 H8         -2.0920    2.2529    0.4660 H         1 <0>         0.0000
     29 H9         -0.9279    1.7722   -0.7841 H         1 <0>         0.0000
     30 H10        -1.8230    0.5342    0.1262 H         1 <0>         0.0000
     31 H11        -4.0261    1.2580    3.3572 H         1 <0>         0.0000
     32 H12        -4.2304   -0.3593    2.6574 H         1 <0>         0.0000
     33 H13        -3.5090    0.9261    1.6845 H         1 <0>         0.0000
     34 H14        -0.9258    1.1147    4.5537 H         1 <0>         0.0000
     35 H15        -1.9272    2.1376    3.5587 H         1 <0>         0.0000
@<TRIPOS>BOND
     1    1   14 ar
     2    1   15 ar
     3    1   21 1
     4    2    4 1
     5    2    7 ar
     6    2    8 ar
     7    3    5 1
     8    3    6 2
     9    3   13 1
    10    4    9 1
    11    4   16 2
    12    5   10 1
    13    5   17 2
    14    6   11 1
    15    6   19 1
    16    7   14 ar
    17    7   18 1
    18    8   15 ar
    19    8   20 1
    20    9   22 1
    21    9   23 1
    22    9   24 1
    23   10   25 1
    24   10   26 1
    25   10   27 1
    26   11   28 1
    27   11   29 1
    28   11   30 1
    29   12   18 1
    30   12   31 1
    31   12   32 1
    32   12   33 1
    33   13   18 1
    34   13   34 1
    35   13   35 1
    36   16   20 1
    37   17   19 1
