@<TRIPOS>MOLECULE
*****
   27    29     0     0     0
SMALL
NO_CHARGES

@<TRIPOS>ATOM
      1 C1          0.8479    1.2352    1.5302 C.ar      1 <0>         0.0000
      2 C2          0.6785    1.7631    2.8246 C.ar      1 <0>         0.0000
      3 C3          1.1118   -2.4317    1.9154 C.2       1 <0>         0.0000
      4 C4          2.3011   -2.5732    2.6886 C.2       1 <0>         0.0000
      5 C5         -1.4434    0.3627    1.5056 C.ar      1 <0>         0.0000
      6 C6         -0.1923    0.5611    0.8813 C.ar      1 <0>         0.0000
      7 C7         -0.5465    1.5549    3.4290 C.ar      1 <0>         0.0000
      8 C8         -1.5766    0.8654    2.7843 C.ar      1 <0>         0.0000
      9 C9          1.3732   -2.1035    0.6088 C.2       1 <0>         0.0000
     10 C10         3.4266   -2.3289    1.9413 C.2       1 <0>         0.0000
     11 C11        -2.3653    1.6425    4.7293 C.3       1 <0>         0.0000
     12 N1         -0.0010    0.0406   -0.4372 N.pl3     1 <0>         0.0000
     13 O1         -1.1036   -2.2418   -0.1615 O.2       1 <0>         0.0000
     14 O2          0.7222   -1.8487   -1.9300 O.2       1 <0>         0.0000
     15 O3         -0.9552    1.9222    4.6928 O.3       1 <0>         0.0000
     16 O4         -2.6671    0.7785    3.6208 O.3       1 <0>         0.0000
     17 S1          3.0760   -1.9427    0.2798 S.3       1 <0>         0.0000
     18 S2          0.1573   -1.6520   -0.5966 S.o2      1 <0>         0.0000
     19 Cl1         5.0634   -2.4151    2.4871 Cl        1 <0>         0.0000
     20 H1          1.8061    1.3493    1.0304 H         1 <0>         0.0000
     21 H2          1.4787    2.2924    3.3314 H         1 <0>         0.0000
     22 H3          0.1042   -2.5579    2.2948 H         1 <0>         0.0000
     23 H4          2.3290   -2.8425    3.7383 H         1 <0>         0.0000
     24 H5         -2.2411   -0.1679    0.9991 H         1 <0>         0.0000
     25 H6         -2.6087    1.1319    5.6630 H         1 <0>         0.0000
     26 H7         -2.9247    2.5813    4.6203 H         1 <0>         0.0000
     27 H8          0.7577    0.4845   -0.9522 H         1 <0>         0.0000
@<TRIPOS>BOND
     1    1    2 ar
     2    1    6 ar
     3    1   20 1
     4    2    7 ar
     5    2   21 1
     6    3    4 1
     7    3    9 2
     8    3   22 1
     9    4   10 2
    10    4   23 1
    11    5    6 ar
    12    5    8 ar
    13    5   24 1
    14    6   12 1
    15    7    8 ar
    16    7   15 1
    17    8   16 1
    18    9   17 1
    19    9   18 1
    20   10   17 1
    21   10   19 1
    22   11   15 1
    23   11   16 1
    24   11   25 1
    25   11   26 1
    26   12   18 1
    27   12   27 1
    28   13   18 2
    29   14   18 2
