@<TRIPOS>MOLECULE
*****
   44    46     0     0     0
SMALL
NO_CHARGES

@<TRIPOS>ATOM
      1 C1         -1.7640    4.8602   -5.1669 C.1       1 <0>         0.0000
      2 C2         -1.8682    3.5824   -3.0850 C.2       1 <0>         0.0000
      3 C3         -2.3031    3.7966   -4.3788 C.2       1 <0>         0.0000
      4 C4         -2.3812    2.5412   -2.2792 C.2       1 <0>         0.0000
      5 C5         -3.3520    1.7083   -2.8080 C.2       1 <0>         0.0000
      6 C6         -3.3175    2.9336   -4.9746 C.2       1 <0>         0.0000
      7 C7          0.0309   -0.8631   -0.0496 C.2       1 <0>         0.0000
      8 C8         -1.9359    2.3346   -0.8606 C.2       1 <0>         0.0000
      9 C9          2.6769   -1.0373    1.1465 C.3       1 <0>         0.0000
     10 C10         1.8487    0.2187    1.3946 C.3       1 <0>         0.0000
     11 C11         1.4428    0.9378   -1.0467 C.3       1 <0>         0.0000
     12 C12         1.7619   -2.2541    1.1371 C.3       1 <0>         0.0000
     13 C13         0.2914    1.6466   -1.7718 C.3       1 <0>         0.0000
     14 C14        -0.1631    1.5582    0.6144 C.3       1 <0>         0.0000
     15 C15         0.8192    0.4189    0.2783 C.3       1 <0>         0.0000
     16 C16        -3.9732    0.5641   -2.0598 C.3       1 <0>         0.0000
     17 C17        -0.1676   -3.2918    0.0021 C.3       1 <0>         0.0000
     18 N1         -1.2941    5.7339   -5.7795 N.1       1 <0>         0.0000
     19 N2         -3.7638    1.9274   -4.0873 N.am      1 <0>         0.0000
     20 N3          0.5822   -2.0708    0.2856 N.am      1 <0>         0.0000
     21 N4         -0.6025    2.0870   -0.6813 N.am      1 <0>         0.0000
     22 O1         -3.7824    2.9999   -6.1084 O.2       1 <0>         0.0000
     23 O2         -1.0428   -0.7889   -0.6623 O.2       1 <0>         0.0000
     24 O3         -2.7409    2.3798    0.0722 O.2       1 <0>         0.0000
     25 H1         -1.1136    4.2465   -2.6715 H         1 <0>         0.0000
     26 H2          3.2060   -0.9588    0.1902 H         1 <0>         0.0000
     27 H3          3.4345   -1.1709    1.9253 H         1 <0>         0.0000
     28 H4          1.3303    0.1272    2.3584 H         1 <0>         0.0000
     29 H5          2.4869    1.1065    1.4630 H         1 <0>         0.0000
     30 H6          1.8819    0.1494   -1.6626 H         1 <0>         0.0000
     31 H7          2.2359    1.6519   -0.7990 H         1 <0>         0.0000
     32 H8          2.3016   -3.1356    0.7736 H         1 <0>         0.0000
     33 H9          1.4322   -2.4828    2.1620 H         1 <0>         0.0000
     34 H10         0.6520    2.4924   -2.3638 H         1 <0>         0.0000
     35 H11        -0.2385    0.9592   -2.4350 H         1 <0>         0.0000
     36 H12        -1.0333    1.2327    1.1849 H         1 <0>         0.0000
     37 H13         0.3576    2.3331    1.1910 H         1 <0>         0.0000
     38 H14        -4.6557    0.9491   -1.2969 H         1 <0>         0.0000
     39 H15        -3.2037   -0.0151   -1.5431 H         1 <0>         0.0000
     40 H16        -4.5259   -0.0954   -2.7350 H         1 <0>         0.0000
     41 H17         0.4858   -4.0218   -0.4876 H         1 <0>         0.0000
     42 H18        -1.0049   -3.0525   -0.6502 H         1 <0>         0.0000
     43 H19        -0.5508   -3.7339    0.9309 H         1 <0>         0.0000
     44 H20        -4.4667    1.3161   -4.4942 H         1 <0>         0.0000
@<TRIPOS>BOND
     1    1    3 1
     2    1   18 3
     3    2    3 2
     4    2    4 1
     5    2   25 1
     6    3    6 1
     7    4    5 2
     8    4    8 1
     9    5   16 1
    10    5   19 1
    11    6   19 am
    12    6   22 2
    13    7   15 1
    14    7   20 am
    15    7   23 2
    16    8   21 am
    17    8   24 2
    18    9   10 1
    19    9   12 1
    20    9   26 1
    21    9   27 1
    22   10   15 1
    23   10   28 1
    24   10   29 1
    25   11   13 1
    26   11   15 1
    27   11   30 1
    28   11   31 1
    29   12   20 1
    30   12   32 1
    31   12   33 1
    32   13   21 1
    33   13   34 1
    34   13   35 1
    35   14   15 1
    36   14   21 1
    37   14   36 1
    38   14   37 1
    39   16   38 1
    40   16   39 1
    41   16   40 1
    42   17   20 1
    43   17   41 1
    44   17   42 1
    45   17   43 1
    46   19   44 1
