@<TRIPOS>MOLECULE
*****
   44    46     0     0     0
SMALL
NO_CHARGES

@<TRIPOS>ATOM
      1 C1         -3.1273    2.4445   -4.4081 C.ar      1 <0>         0.0000
      2 C2         -3.9356    1.3059   -4.4336 C.ar      1 <0>         0.0000
      3 C3         -1.9051    2.3807   -3.7370 C.ar      1 <0>         0.0000
      4 C4         -3.4740    0.1573   -3.7830 C.ar      1 <0>         0.0000
      5 C5         -1.5226    1.1834   -3.1142 C.ar      1 <0>         0.0000
      6 C6         -0.7884    2.6329    1.0822 C.3       1 <0>         0.0000
      7 C7         -1.3757    1.4271    1.8287 C.3       1 <0>         0.0000
      8 C8         -1.4431   -1.1342    1.9470 C.3       1 <0>         0.0000
      9 C9         -0.9533    2.4755   -0.4326 C.3       1 <0>         0.0000
     10 C10        -0.4300   -2.2628    1.6913 C.3       1 <0>         0.0000
     11 C11        -1.0322    0.0650   -0.2396 C.3       1 <0>         0.0000
     12 C12         0.6720   -0.0901    1.6197 C.3       1 <0>         0.0000
     13 C13        -0.8164    0.1057    1.2865 C.3       1 <0>         0.0000
     14 C14         2.6269   -3.5902    1.2516 C.3       1 <0>         0.0000
     15 C15        -0.2266    1.0834   -2.3261 C.3       1 <0>         0.0000
     16 N1         -2.3024    0.0859   -3.1388 N.ar      1 <0>         0.0000
     17 N2         -0.3770    1.2068   -0.8732 N.3       1 <0>         0.0000
     18 N3          0.8851   -1.5653    1.5944 N.pl3     1 <0>         0.0000
     19 O1          3.0089   -1.1524    0.2541 O.2       1 <0>         0.0000
     20 O2          1.2217   -2.6412   -0.7709 O.2       1 <0>         0.0000
     21 S1          1.9454   -2.1492    0.4145 S.o2      1 <0>         0.0000
     22 H1         -3.4413    3.3612   -4.9015 H         1 <0>         0.0000
     23 H2         -4.8945    1.3007   -4.9442 H         1 <0>         0.0000
     24 H3         -1.2477    3.2453   -3.6954 H         1 <0>         0.0000
     25 H4         -4.0739   -0.7522   -3.7841 H         1 <0>         0.0000
     26 H5         -1.2793    3.5566    1.4097 H         1 <0>         0.0000
     27 H6          0.2779    2.7320    1.3147 H         1 <0>         0.0000
     28 H7         -1.1800    1.5088    2.9052 H         1 <0>         0.0000
     29 H8         -2.4672    1.4214    1.7048 H         1 <0>         0.0000
     30 H9         -2.4300   -1.3765    1.5415 H         1 <0>         0.0000
     31 H10        -1.5556   -0.9607    3.0233 H         1 <0>         0.0000
     32 H11        -2.0265    2.5527   -0.6931 H         1 <0>         0.0000
     33 H12        -0.4375    3.2917   -0.9512 H         1 <0>         0.0000
     34 H13        -0.4060   -2.9933    2.5057 H         1 <0>         0.0000
     35 H14        -0.6526   -2.7882    0.7582 H         1 <0>         0.0000
     36 H15        -0.6157   -0.8480   -0.6721 H         1 <0>         0.0000
     37 H16        -2.1178    0.0433   -0.4392 H         1 <0>         0.0000
     38 H17         1.3333    0.4117    0.9154 H         1 <0>         0.0000
     39 H18         0.9000    0.2707    2.6297 H         1 <0>         0.0000
     40 H19         3.3098   -4.0678    0.5467 H         1 <0>         0.0000
     41 H20         3.1543   -3.2500    2.1423 H         1 <0>         0.0000
     42 H21         1.8129   -4.2702    1.5066 H         1 <0>         0.0000
     43 H22         0.2399    0.1158   -2.5303 H         1 <0>         0.0000
     44 H23         0.4634    1.8675   -2.6582 H         1 <0>         0.0000
@<TRIPOS>BOND
     1    1    2 ar
     2    1    3 ar
     3    1   22 1
     4    2    4 ar
     5    2   23 1
     6    3    5 ar
     7    3   24 1
     8    4   16 ar
     9    4   25 1
    10    5   15 1
    11    5   16 ar
    12    6    7 1
    13    6    9 1
    14    6   26 1
    15    6   27 1
    16    7   13 1
    17    7   28 1
    18    7   29 1
    19    8   10 1
    20    8   13 1
    21    8   30 1
    22    8   31 1
    23    9   17 1
    24    9   32 1
    25    9   33 1
    26   10   18 1
    27   10   34 1
    28   10   35 1
    29   11   13 1
    30   11   17 1
    31   11   36 1
    32   11   37 1
    33   12   13 1
    34   12   18 1
    35   12   38 1
    36   12   39 1
    37   14   21 1
    38   14   40 1
    39   14   41 1
    40   14   42 1
    41   15   17 1
    42   15   43 1
    43   15   44 1
    44   18   21 1
    45   19   21 2
    46   20   21 2
