@<TRIPOS>MOLECULE
*****
   29    31     0     0     0
SMALL
NO_CHARGES

@<TRIPOS>ATOM
      1 C1         -2.8251   -1.2866   -7.7665 C.ar      1 <0>         0.0000
      2 C2          2.0879    1.6443   -4.9243 C.ar      1 <0>         0.0000
      3 C3          1.1665    1.2248   -3.9471 C.ar      1 <0>         0.0000
      4 C4         -3.5972   -0.8389   -6.6892 C.ar      1 <0>         0.0000
      5 C5         -2.0132   -2.4096   -7.6218 C.ar      1 <0>         0.0000
      6 C6          2.4144    0.8428   -6.0259 C.ar      1 <0>         0.0000
      7 C7          0.5304   -0.0239   -4.0324 C.ar      1 <0>         0.0000
      8 C8         -3.5592   -1.5193   -5.4698 C.ar      1 <0>         0.0000
      9 C9         -1.9565   -3.1117   -6.4039 C.ar      1 <0>         0.0000
     10 C10         1.7877   -0.4028   -6.1229 C.ar      1 <0>         0.0000
     11 C11         0.8766   -0.7945   -5.1281 C.ar      1 <0>         0.0000
     12 C12        -2.7464   -2.6454   -5.3427 C.ar      1 <0>         0.0000
     13 C13         1.0548   -2.3307   -6.6473 C.2       1 <0>         0.0000
     14 C14        -1.1370   -4.3393   -6.2853 C.2       1 <0>         0.0000
     15 N1          1.8707   -1.4165   -7.0890 N.2       1 <0>         0.0000
     16 N2          0.0591   -4.5788   -6.6978 N.2       1 <0>         0.0000
     17 N3          0.7975   -3.5373   -7.2655 N.pl3     1 <0>         0.0000
     18 O1          0.4142   -2.0589   -5.4684 O.3       1 <0>         0.0000
     19 Br1        -2.6674   -3.5166   -3.6341 Br        1 <0>         0.0000
     20 H1         -2.8529   -0.7594   -8.7158 H         1 <0>         0.0000
     21 H2          2.5582    2.6184   -4.8202 H         1 <0>         0.0000
     22 H3          0.9421    1.8781   -3.1088 H         1 <0>         0.0000
     23 H4         -4.2267    0.0406   -6.7918 H         1 <0>         0.0000
     24 H5         -1.4077   -2.7554   -8.4533 H         1 <0>         0.0000
     25 H6          3.1240    1.1717   -6.7792 H         1 <0>         0.0000
     26 H7         -0.1835   -0.3658   -3.2895 H         1 <0>         0.0000
     27 H8         -4.1473   -1.1756   -4.6251 H         1 <0>         0.0000
     28 H9         -1.6111   -5.2033   -5.8227 H         1 <0>         0.0000
     29 H10         1.6165   -3.8952   -7.7437 H         1 <0>         0.0000
@<TRIPOS>BOND
     1    1    4 ar
     2    1    5 ar
     3    1   20 1
     4    2    3 ar
     5    2    6 ar
     6    2   21 1
     7    3    7 ar
     8    3   22 1
     9    4    8 ar
    10    4   23 1
    11    5    9 ar
    12    5   24 1
    13    6   10 ar
    14    6   25 1
    15    7   11 ar
    16    7   26 1
    17    8   12 ar
    18    8   27 1
    19    9   12 ar
    20    9   14 1
    21   10   11 ar
    22   10   15 1
    23   11   18 1
    24   12   19 1
    25   13   15 2
    26   13   17 1
    27   13   18 1
    28   14   16 2
    29   14   28 1
    30   16   17 1
    31   17   29 1
