@<TRIPOS>MOLECULE
*****
   40    42     0     0     0
SMALL
NO_CHARGES

@<TRIPOS>ATOM
      1 C1         -1.0662    5.3036    2.7051 C.1       1 <0>         0.0000
      2 C2          2.4873    3.5785    8.5836 C.ar      1 <0>         0.0000
      3 C3          1.5953    5.7972    8.3444 C.ar      1 <0>         0.0000
      4 C4          1.9942    3.2395    7.3226 C.ar      1 <0>         0.0000
      5 C5          1.0950    5.4806    7.0835 C.ar      1 <0>         0.0000
      6 C6          2.3005    4.8602    9.1189 C.ar      1 <0>         0.0000
      7 C7          1.2959    4.1916    6.5684 C.ar      1 <0>         0.0000
      8 C8         -0.0991    2.9730    2.7590 C.2       1 <0>         0.0000
      9 C9         -0.0479    1.2108    1.4637 C.2       1 <0>         0.0000
     10 C10        -0.3054    4.2859    3.3684 C.2       1 <0>         0.0000
     11 C11        -0.2819    0.2952    0.3084 C.3       1 <0>         0.0000
     12 C12        -1.7735    0.1080   -0.0383 C.3       1 <0>         0.0000
     13 C13        -2.4204    1.2999   -0.7592 C.3       1 <0>         0.0000
     14 C14        -2.4696    2.6201    0.0244 C.3       1 <0>         0.0000
     15 C15        -1.0997    3.2133    0.3721 C.3       1 <0>         0.0000
     16 C16         2.8565    5.2361   10.4727 C.3       1 <0>         0.0000
     17 N1         -1.6982    6.1148    2.1526 N.1       1 <0>         0.0000
     18 N2          0.4971    1.9763    3.4142 N.2       1 <0>         0.0000
     19 N3          0.5234    0.8713    2.6022 N.2       1 <0>         0.0000
     20 N4          0.1361    4.6468    4.5606 N.2       1 <0>         0.0000
     21 N5         -0.4540    2.5255    1.4991 N.pl3     1 <0>         0.0000
     22 N6          0.8141    3.8074    5.3048 N.pl3     1 <0>         0.0000
     23 H1          3.0252    2.8284    9.1588 H         1 <0>         0.0000
     24 H2          1.4326    6.7986    8.7377 H         1 <0>         0.0000
     25 H3          2.1470    2.2387    6.9250 H         1 <0>         0.0000
     26 H4          0.5510    6.2119    6.4964 H         1 <0>         0.0000
     27 H5          0.2593    0.6564   -0.5767 H         1 <0>         0.0000
     28 H6          0.1644   -0.6625    0.5865 H         1 <0>         0.0000
     29 H7         -1.8612   -0.7724   -0.6847 H         1 <0>         0.0000
     30 H8         -2.3263   -0.1229    0.8803 H         1 <0>         0.0000
     31 H9         -1.8873    1.4732   -1.7045 H         1 <0>         0.0000
     32 H10        -3.4449    1.0247   -1.0348 H         1 <0>         0.0000
     33 H11        -2.9995    3.3644   -0.5804 H         1 <0>         0.0000
     34 H12        -3.0468    2.5020    0.9490 H         1 <0>         0.0000
     35 H13        -0.4236    3.1516   -0.4882 H         1 <0>         0.0000
     36 H14        -1.1993    4.2635    0.6266 H         1 <0>         0.0000
     37 H15         3.7610    5.8484   10.3720 H         1 <0>         0.0000
     38 H16         2.1334    5.8180   11.0536 H         1 <0>         0.0000
     39 H17         3.1217    4.3496   11.0558 H         1 <0>         0.0000
     40 H18         0.9713    2.8486    4.9510 H         1 <0>         0.0000
@<TRIPOS>BOND
     1    1   10 1
     2    1   17 3
     3    2    4 ar
     4    2    6 ar
     5    2   23 1
     6    3    5 ar
     7    3    6 ar
     8    3   24 1
     9    4    7 ar
    10    4   25 1
    11    5    7 ar
    12    5   26 1
    13    6   16 1
    14    7   22 1
    15    8   10 1
    16    8   18 2
    17    8   21 1
    18    9   11 1
    19    9   19 2
    20    9   21 1
    21   10   20 2
    22   11   12 1
    23   11   27 1
    24   11   28 1
    25   12   13 1
    26   12   29 1
    27   12   30 1
    28   13   14 1
    29   13   31 1
    30   13   32 1
    31   14   15 1
    32   14   33 1
    33   14   34 1
    34   15   21 1
    35   15   35 1
    36   15   36 1
    37   16   37 1
    38   16   38 1
    39   16   39 1
    40   18   19 1
    41   20   22 1
    42   22   40 1
