@<TRIPOS>MOLECULE
*****
   40    42     0     0     0
SMALL
NO_CHARGES

@<TRIPOS>ATOM
      1 C1         -1.6059    5.0159    2.3944 C.1       1 <0>         0.0000
      2 C2         -7.0298    3.8364    6.7932 C.ar      1 <0>         0.0000
      3 C3         -6.0228    6.0170    6.7107 C.ar      1 <0>         0.0000
      4 C4         -6.1227    3.3761    5.8384 C.ar      1 <0>         0.0000
      5 C5         -5.1067    5.5781    5.7565 C.ar      1 <0>         0.0000
      6 C6         -6.9980    5.1618    7.2500 C.ar      1 <0>         0.0000
      7 C7         -5.1568    4.2478    5.3171 C.ar      1 <0>         0.0000
      8 C8         -2.4821    2.6498    2.4471 C.2       1 <0>         0.0000
      9 C9         -2.0561    0.7433    1.4626 C.2       1 <0>         0.0000
     10 C10        -2.5076    4.0331    2.9196 C.2       1 <0>         0.0000
     11 C11        -1.4437   -0.2832    0.5685 C.3       1 <0>         0.0000
     12 C12        -1.4433    0.1174   -0.9213 C.3       1 <0>         0.0000
     13 C13        -0.3985    1.1769   -1.3019 C.3       1 <0>         0.0000
     14 C14        -0.5526    2.5512   -0.6333 C.3       1 <0>         0.0000
     15 C15        -0.4021    2.5450    0.8920 C.3       1 <0>         0.0000
     16 C16        -7.9599    5.6477    8.3091 C.3       1 <0>         0.0000
     17 N1         -0.8691    5.8026    1.9462 N.1       1 <0>         0.0000
     18 N2         -3.3941    1.7557    2.8309 N.2       1 <0>         0.0000
     19 N3         -3.1280    0.5628    2.2086 N.2       1 <0>         0.0000
     20 N4         -3.3526    4.5139    3.8146 N.2       1 <0>         0.0000
     21 N5         -1.5987    2.0364    1.5773 N.pl3     1 <0>         0.0000
     22 N6         -4.2647    3.7430    4.3549 N.pl3     1 <0>         0.0000
     23 H1         -7.7759    3.1498    7.1866 H         1 <0>         0.0000
     24 H2         -5.9789    7.0518    7.0435 H         1 <0>         0.0000
     25 H3         -6.1648    2.3452    5.4941 H         1 <0>         0.0000
     26 H4         -4.3601    6.2489    5.3464 H         1 <0>         0.0000
     27 H5         -0.4167   -0.5021    0.8911 H         1 <0>         0.0000
     28 H6         -2.0255   -1.1964    0.7140 H         1 <0>         0.0000
     29 H7         -1.2483   -0.7843   -1.5125 H         1 <0>         0.0000
     30 H8         -2.4474    0.4610   -1.1980 H         1 <0>         0.0000
     31 H9          0.6022    0.7855   -1.0716 H         1 <0>         0.0000
     32 H10        -0.4265    1.3175   -2.3886 H         1 <0>         0.0000
     33 H11         0.2185    3.2203   -1.0311 H         1 <0>         0.0000
     34 H12        -1.5186    3.0019   -0.8898 H         1 <0>         0.0000
     35 H13         0.4460    1.9197    1.1929 H         1 <0>         0.0000
     36 H14        -0.2041    3.5489    1.2535 H         1 <0>         0.0000
     37 H15        -7.5232    5.5538    9.3111 H         1 <0>         0.0000
     38 H16        -8.2164    6.7014    8.1626 H         1 <0>         0.0000
     39 H17        -8.8888    5.0697    8.3011 H         1 <0>         0.0000
     40 H18        -4.3272    2.7586    4.0444 H         1 <0>         0.0000
@<TRIPOS>BOND
     1    1   10 1
     2    1   17 3
     3    2    4 ar
     4    2    6 ar
     5    2   23 1
     6    3    5 ar
     7    3    6 ar
     8    3   24 1
     9    4    7 ar
    10    4   25 1
    11    5    7 ar
    12    5   26 1
    13    6   16 1
    14    7   22 1
    15    8   10 1
    16    8   18 2
    17    8   21 1
    18    9   11 1
    19    9   19 2
    20    9   21 1
    21   10   20 2
    22   11   12 1
    23   11   27 1
    24   11   28 1
    25   12   13 1
    26   12   29 1
    27   12   30 1
    28   13   14 1
    29   13   31 1
    30   13   32 1
    31   14   15 1
    32   14   33 1
    33   14   34 1
    34   15   21 1
    35   15   35 1
    36   15   36 1
    37   16   37 1
    38   16   38 1
    39   16   39 1
    40   18   19 1
    41   20   22 1
    42   22   40 1
