@<TRIPOS>MOLECULE
*****
   30    31     0     0     0
SMALL
NO_CHARGES

@<TRIPOS>ATOM
      1 C1         -1.1968   -4.1999    0.6928 C.ar      1 <0>         0.0000
      2 C2         -0.7587   -2.9022    0.4375 C.ar      1 <0>         0.0000
      3 C3         -2.4552   -4.4572    1.2517 C.ar      1 <0>         0.0000
      4 C4         -2.8703   -2.0551    1.3113 C.ar      1 <0>         0.0000
      5 C5          3.0496    3.2428   -1.5407 C.2       1 <0>         0.0000
      6 C6          1.5636    1.4290   -0.7975 C.2       1 <0>         0.0000
      7 C7         -1.6030   -1.8209    0.7497 C.ar      1 <0>         0.0000
      8 C8          1.8218    2.7765   -0.9812 C.2       1 <0>         0.0000
      9 C9         -3.2722   -3.3668    1.5514 C.ar      1 <0>         0.0000
     10 C10         3.9924    2.3327   -1.9036 C.2       1 <0>         0.0000
     11 C11         2.5829    0.4631   -1.1901 C.2       1 <0>         0.0000
     12 C12         0.2961    1.0053   -0.2231 C.2       1 <0>         0.0000
     13 C13         5.3270    2.6420   -2.5019 C.3       1 <0>         0.0000
     14 N1         -0.0079   -0.2342   -0.0246 N.2       1 <0>         0.0000
     15 N2         -1.2090   -0.5056    0.5134 N.pl3     1 <0>         0.0000
     16 O1          2.5520   -0.7411   -1.1118 O.2       1 <0>         0.0000
     17 O2          3.7824    1.0140   -1.7425 O.3       1 <0>         0.0000
     18 O3          0.8641    3.6761   -0.6118 O.3       1 <0>         0.0000
     19 Cl1        -4.8621   -3.6455    2.2552 Cl        1 <0>         0.0000
     20 H1         -0.5447   -5.0353    0.4517 H         1 <0>         0.0000
     21 H2          0.2153   -2.7046    0.0049 H         1 <0>         0.0000
     22 H3         -2.7913   -5.4695    1.4483 H         1 <0>         0.0000
     23 H4         -3.5321   -1.2289    1.5571 H         1 <0>         0.0000
     24 H5          3.2388    4.3026   -1.6791 H         1 <0>         0.0000
     25 H6         -0.4009    1.8097    0.0373 H         1 <0>         0.0000
     26 H7          6.1257    2.2456   -1.8663 H         1 <0>         0.0000
     27 H8          5.4633    3.7190   -2.6170 H         1 <0>         0.0000
     28 H9          5.4207    2.1623   -3.4818 H         1 <0>         0.0000
     29 H10        -1.8511    0.2513    0.7488 H         1 <0>         0.0000
     30 H11         1.1761    4.5765   -0.7947 H         1 <0>         0.0000
@<TRIPOS>BOND
     1    1    2 ar
     2    1    3 ar
     3    1   20 1
     4    2    7 ar
     5    2   21 1
     6    3    9 ar
     7    3   22 1
     8    4    7 ar
     9    4    9 ar
    10    4   23 1
    11    5    8 1
    12    5   10 2
    13    5   24 1
    14    6    8 2
    15    6   11 1
    16    6   12 1
    17    7   15 1
    18    8   18 1
    19    9   19 1
    20   10   13 1
    21   10   17 1
    22   11   16 2
    23   11   17 1
    24   12   14 2
    25   12   25 1
    26   13   26 1
    27   13   27 1
    28   13   28 1
    29   14   15 1
    30   15   29 1
    31   18   30 1
