@<TRIPOS>MOLECULE
*****
   44    46     0     0     0
SMALL
NO_CHARGES

@<TRIPOS>ATOM
      1 C1         -4.0766    2.4581   -2.1357 C.1       1 <0>         0.0000
      2 C2         -2.8595    1.9944   -0.0663 C.2       1 <0>         0.0000
      3 C3         -4.0437    2.2674   -0.7182 C.2       1 <0>         0.0000
      4 C4         -2.8026    1.7966    1.3402 C.2       1 <0>         0.0000
      5 C5         -3.9665    1.9240    2.0738 C.2       1 <0>         0.0000
      6 C6         -5.3000    2.3678    0.0191 C.2       1 <0>         0.0000
      7 C7          0.6996    0.1230   -1.0863 C.2       1 <0>         0.0000
      8 C8         -1.4828    1.6053    2.0298 C.2       1 <0>         0.0000
      9 C9          1.7953   -2.6470   -1.0228 C.3       1 <0>         0.0000
     10 C10         0.3946   -2.2818   -0.5149 C.3       1 <0>         0.0000
     11 C11         1.3096   -0.6426    1.2583 C.3       1 <0>         0.0000
     12 C12         2.5190   -1.4595   -1.7037 C.3       1 <0>         0.0000
     13 C13         0.7239    0.5596    2.0143 C.3       1 <0>         0.0000
     14 C14        -0.9979   -0.4819    0.6547 C.3       1 <0>         0.0000
     15 C15         0.3619   -0.8577    0.0476 C.3       1 <0>         0.0000
     16 C16        -4.0631    1.8265    3.5693 C.3       1 <0>         0.0000
     17 C17         2.1011    0.6030   -3.0234 C.3       1 <0>         0.0000
     18 N1         -4.0768    2.5980   -3.2930 N.1       1 <0>         0.0000
     19 N2         -5.1292    2.1820    1.4083 N.am      1 <0>         0.0000
     20 N3          1.6638   -0.2968   -1.9592 N.am      1 <0>         0.0000
     21 N4         -0.6839    0.5951    1.5944 N.am      1 <0>         0.0000
     22 O1         -6.4182    2.5883   -0.4359 O.2       1 <0>         0.0000
     23 O2          0.1070    1.1997   -1.2188 O.2       1 <0>         0.0000
     24 O3         -1.1249    2.3616    2.9418 O.2       1 <0>         0.0000
     25 H1         -1.9349    1.9414   -0.6374 H         1 <0>         0.0000
     26 H2          2.4091   -2.9921   -0.1859 H         1 <0>         0.0000
     27 H3          1.7206   -3.4859   -1.7200 H         1 <0>         0.0000
     28 H4         -0.3323   -2.3532   -1.3317 H         1 <0>         0.0000
     29 H5          0.0797   -2.9955    0.2547 H         1 <0>         0.0000
     30 H6          2.3508   -0.4731    0.9734 H         1 <0>         0.0000
     31 H7          1.2813   -1.5409    1.8852 H         1 <0>         0.0000
     32 H8          3.3822   -1.1465   -1.0997 H         1 <0>         0.0000
     33 H9          2.9220   -1.7723   -2.6707 H         1 <0>         0.0000
     34 H10         0.8095    0.4583    3.0995 H         1 <0>         0.0000
     35 H11         1.2006    1.5035    1.7323 H         1 <0>         0.0000
     36 H12        -1.7164   -0.1774   -0.1016 H         1 <0>         0.0000
     37 H13        -1.4105   -1.3484    1.1913 H         1 <0>         0.0000
     38 H14        -4.0188    2.8292    4.0075 H         1 <0>         0.0000
     39 H15        -3.2306    1.2606    3.9844 H         1 <0>         0.0000
     40 H16        -5.0061    1.3576    3.8685 H         1 <0>         0.0000
     41 H17         3.0802    1.0404   -2.7890 H         1 <0>         0.0000
     42 H18         1.3717    1.4039   -3.1303 H         1 <0>         0.0000
     43 H19         2.1802    0.0485   -3.9640 H         1 <0>         0.0000
     44 H20        -5.9957    2.2633    1.9336 H         1 <0>         0.0000
@<TRIPOS>BOND
     1    1    3 1
     2    1   18 3
     3    2    3 2
     4    2    4 1
     5    2   25 1
     6    3    6 1
     7    4    5 2
     8    4    8 1
     9    5   16 1
    10    5   19 1
    11    6   19 am
    12    6   22 2
    13    7   15 1
    14    7   20 am
    15    7   23 2
    16    8   21 am
    17    8   24 2
    18    9   10 1
    19    9   12 1
    20    9   26 1
    21    9   27 1
    22   10   15 1
    23   10   28 1
    24   10   29 1
    25   11   13 1
    26   11   15 1
    27   11   30 1
    28   11   31 1
    29   12   20 1
    30   12   32 1
    31   12   33 1
    32   13   21 1
    33   13   34 1
    34   13   35 1
    35   14   15 1
    36   14   21 1
    37   14   36 1
    38   14   37 1
    39   16   38 1
    40   16   39 1
    41   16   40 1
    42   17   20 1
    43   17   41 1
    44   17   42 1
    45   17   43 1
    46   19   44 1
