@<TRIPOS>MOLECULE
*****
   40    42     0     0     0
SMALL
NO_CHARGES

@<TRIPOS>ATOM
      1 C1          2.1433    3.0991    4.6705 C.1       1 <0>         0.0000
      2 C2         -3.8043    3.3481    8.5083 C.ar      1 <0>         0.0000
      3 C3         -1.9055    4.6603    9.1780 C.ar      1 <0>         0.0000
      4 C4         -3.0916    2.8697    7.4082 C.ar      1 <0>         0.0000
      5 C5         -1.1756    4.1956    8.0857 C.ar      1 <0>         0.0000
      6 C6         -3.2278    4.2488    9.4149 C.ar      1 <0>         0.0000
      7 C7         -1.7725    3.2922    7.1949 C.ar      1 <0>         0.0000
      8 C8          0.2033    1.7540    3.7785 C.2       1 <0>         0.0000
      9 C9         -0.2092    0.4367    2.0814 C.2       1 <0>         0.0000
     10 C10         0.7810    2.6638    4.7665 C.2       1 <0>         0.0000
     11 C11        -0.0318   -0.3635    0.8340 C.3       1 <0>         0.0000
     12 C12         1.1541   -1.3484    0.8962 C.3       1 <0>         0.0000
     13 C13         2.5384   -0.6972    0.7611 C.3       1 <0>         0.0000
     14 C14         2.9302    0.2967    1.8649 C.3       1 <0>         0.0000
     15 C15         2.0420    1.5426    1.9534 C.3       1 <0>         0.0000
     16 C16        -3.9899    4.7412   10.6231 C.3       1 <0>         0.0000
     17 N1          3.2583    3.4324    4.5781 N.1       1 <0>         0.0000
     18 N2         -1.0179    1.2380    3.9230 N.2       1 <0>         0.0000
     19 N3         -1.2723    0.4088    2.8607 N.2       1 <0>         0.0000
     20 N4          0.1487    3.1314    5.8285 N.2       1 <0>         0.0000
     21 N5          0.7514    1.2732    2.6031 N.pl3     1 <0>         0.0000
     22 N6         -1.0922    2.7872    6.0730 N.pl3     1 <0>         0.0000
     23 H1         -4.8279    3.0134    8.6600 H         1 <0>         0.0000
     24 H2         -1.4355    5.3631    9.8628 H         1 <0>         0.0000
     25 H3         -3.5565    2.1728    6.7146 H         1 <0>         0.0000
     26 H4         -0.1566    4.5229    7.9125 H         1 <0>         0.0000
     27 H5         -0.9678   -0.9077    0.6883 H         1 <0>         0.0000
     28 H6          0.0892    0.3040   -0.0300 H         1 <0>         0.0000
     29 H7          1.0949   -1.9186    1.8312 H         1 <0>         0.0000
     30 H8          1.0343   -2.0716    0.0818 H         1 <0>         0.0000
     31 H9          3.2938   -1.4908    0.7284 H         1 <0>         0.0000
     32 H10         2.5946   -0.1837   -0.2089 H         1 <0>         0.0000
     33 H11         2.9440   -0.1960    2.8442 H         1 <0>         0.0000
     34 H12         3.9528    0.6418    1.6757 H         1 <0>         0.0000
     35 H13         2.5469    2.3246    2.5114 H         1 <0>         0.0000
     36 H14         1.8355    1.9404    0.9535 H         1 <0>         0.0000
     37 H15        -3.7313    4.1593   11.5163 H         1 <0>         0.0000
     38 H16        -3.7610    5.7894   10.8400 H         1 <0>         0.0000
     39 H17        -5.0705    4.6552   10.4765 H         1 <0>         0.0000
     40 H18        -1.5553    2.1194    5.4334 H         1 <0>         0.0000
@<TRIPOS>BOND
     1    1   10 1
     2    1   17 3
     3    2    4 ar
     4    2    6 ar
     5    2   23 1
     6    3    5 ar
     7    3    6 ar
     8    3   24 1
     9    4    7 ar
    10    4   25 1
    11    5    7 ar
    12    5   26 1
    13    6   16 1
    14    7   22 1
    15    8   10 1
    16    8   18 2
    17    8   21 1
    18    9   11 1
    19    9   19 2
    20    9   21 1
    21   10   20 2
    22   11   12 1
    23   11   27 1
    24   11   28 1
    25   12   13 1
    26   12   29 1
    27   12   30 1
    28   13   14 1
    29   13   31 1
    30   13   32 1
    31   14   15 1
    32   14   33 1
    33   14   34 1
    34   15   21 1
    35   15   35 1
    36   15   36 1
    37   16   37 1
    38   16   38 1
    39   16   39 1
    40   18   19 1
    41   20   22 1
    42   22   40 1
