@<TRIPOS>MOLECULE
*****
   48    51     0     0     0
SMALL
NO_CHARGES

@<TRIPOS>ATOM
      1 C1          1.3275   -6.2337    8.1784 C.2       1 <0>         0.0000
      2 C2          2.3911   -5.5796    8.7406 C.2       1 <0>         0.0000
      3 C3          2.3843   -5.7289    6.2908 C.2       1 <0>         0.0000
      4 C4          2.0474   -1.5195    2.6446 C.2       1 <0>         0.0000
      5 C5          0.1878    0.1035    4.2171 C.3       1 <0>         0.0000
      6 C6          1.0244   -1.0167    4.8817 C.3       1 <0>         0.0000
      7 C7          0.2188   -3.0682    3.5295 C.3       1 <0>         0.0000
      8 C8          0.7655   -0.0723   -0.2981 C.3       1 <0>         0.0000
      9 C9          2.1011    1.6164    1.0090 C.3       1 <0>         0.0000
     10 C10         0.0482   -0.0903    2.7011 C.3       1 <0>         0.0000
     11 C11         0.5218   -4.3991    4.2273 C.3       1 <0>         0.0000
     12 C12         2.4293   -3.1159    4.5755 C.3       1 <0>         0.0000
     13 C13         1.2765    0.6217   -1.5640 C.3       1 <0>         0.0000
     14 C14         2.5269    2.2046   -0.3395 C.3       1 <0>         0.0000
     15 C15         1.7693    0.1261    0.8470 C.3       1 <0>         0.0000
     16 C16         1.4302   -2.1431    3.9076 C.3       1 <0>         0.0000
     17 C17         2.6322   -5.5830    4.8044 C.3       1 <0>         0.0000
     18 N1          1.3307   -6.3122    6.8029 N.2       1 <0>         0.0000
     19 N2          1.3215   -0.4890    2.1009 N.am      1 <0>         0.0000
     20 N3          1.9795   -4.4463    4.1702 N.3       1 <0>         0.0000
     21 O1          3.1140   -1.9069    2.1618 O.2       1 <0>         0.0000
     22 O2          1.5311    2.0081   -1.3423 O.3       1 <0>         0.0000
     23 S1          3.4582   -5.0267    7.4938 S.3       1 <0>         0.0000
     24 H1          0.5130   -6.6851    8.7350 H         1 <0>         0.0000
     25 H2          2.5993   -5.4052    9.7881 H         1 <0>         0.0000
     26 H3         -0.8148    0.1581    4.6538 H         1 <0>         0.0000
     27 H4          0.6640    1.0720    4.3985 H         1 <0>         0.0000
     28 H5          1.9395   -0.5894    5.3055 H         1 <0>         0.0000
     29 H6          0.4796   -1.4642    5.7197 H         1 <0>         0.0000
     30 H7          0.1746   -3.2189    2.4472 H         1 <0>         0.0000
     31 H8         -0.7379   -2.6500    3.8529 H         1 <0>         0.0000
     32 H9         -0.2101    0.3526   -0.0343 H         1 <0>         0.0000
     33 H10         0.6242   -1.1423   -0.4901 H         1 <0>         0.0000
     34 H11         2.9062    1.7398    1.7421 H         1 <0>         0.0000
     35 H12         1.2282    2.1713    1.3728 H         1 <0>         0.0000
     36 H13        -0.7295   -0.8284    2.4736 H         1 <0>         0.0000
     37 H14        -0.2719    0.8459    2.2405 H         1 <0>         0.0000
     38 H15         0.1364   -4.3944    5.2615 H         1 <0>         0.0000
     39 H16         0.0856   -5.2636    3.7166 H         1 <0>         0.0000
     40 H17         3.4538   -2.9406    4.2411 H         1 <0>         0.0000
     41 H18         2.3811   -2.9747    5.6693 H         1 <0>         0.0000
     42 H19         2.1964    0.1280   -1.9175 H         1 <0>         0.0000
     43 H20         0.5356    0.5739   -2.3663 H         1 <0>         0.0000
     44 H21         2.6775    3.2849   -0.2691 H         1 <0>         0.0000
     45 H22         3.4756    1.7473   -0.6652 H         1 <0>         0.0000
     46 H23         2.6908   -0.4017    0.5909 H         1 <0>         0.0000
     47 H24         3.7072   -5.5097    4.6096 H         1 <0>         0.0000
     48 H25         2.2678   -6.4980    4.3267 H         1 <0>         0.0000
@<TRIPOS>BOND
     1    1    2 2
     2    1   18 1
     3    1   24 1
     4    2   23 1
     5    2   25 1
     6    3   17 1
     7    3   18 2
     8    3   23 1
     9    4   16 1
    10    4   19 am
    11    4   21 2
    12    5    6 1
    13    5   10 1
    14    5   26 1
    15    5   27 1
    16    6   16 1
    17    6   28 1
    18    6   29 1
    19    7   11 1
    20    7   16 1
    21    7   30 1
    22    7   31 1
    23    8   13 1
    24    8   15 1
    25    8   32 1
    26    8   33 1
    27    9   14 1
    28    9   15 1
    29    9   34 1
    30    9   35 1
    31   10   19 1
    32   10   36 1
    33   10   37 1
    34   11   20 1
    35   11   38 1
    36   11   39 1
    37   12   16 1
    38   12   20 1
    39   12   40 1
    40   12   41 1
    41   13   22 1
    42   13   42 1
    43   13   43 1
    44   14   22 1
    45   14   44 1
    46   14   45 1
    47   15   19 1
    48   15   46 1
    49   17   20 1
    50   17   47 1
    51   17   48 1
