@<TRIPOS>MOLECULE
*****
   35    37     0     0     0
SMALL
NO_CHARGES

@<TRIPOS>ATOM
      1 C1          7.5898   -2.9228    4.7865 C.1       1 <0>         0.0000
      2 C2          8.6216    0.1805   -0.9868 C.ar      1 <0>         0.0000
      3 C3         -0.0284   -1.8254    2.2932 C.ar      1 <0>         0.0000
      4 C4          9.7182   -0.1522   -0.1828 C.ar      1 <0>         0.0000
      5 C5          7.3256   -0.1250   -0.5545 C.ar      1 <0>         0.0000
      6 C6         -0.0996   -1.4589    0.9460 C.ar      1 <0>         0.0000
      7 C7          1.2119   -2.1027    2.8604 C.ar      1 <0>         0.0000
      8 C8          9.5121   -0.7863    1.0389 C.ar      1 <0>         0.0000
      9 C9          7.1132   -0.7597    0.6672 C.ar      1 <0>         0.0000
     10 C10         1.0695   -1.3788    0.1881 C.ar      1 <0>         0.0000
     11 C11         2.3947   -2.0194    2.1001 C.ar      1 <0>         0.0000
     12 C12         8.2078   -1.1079    1.4884 C.ar      1 <0>         0.0000
     13 C13         2.3323   -1.6524    0.7357 C.ar      1 <0>         0.0000
     14 C14         3.6565   -2.3451    2.7896 C.2       1 <0>         0.0000
     15 C15         5.6985   -2.4082    3.3398 C.2       1 <0>         0.0000
     16 C16         8.1336   -1.7802    2.7753 C.2       1 <0>         0.0000
     17 C17         7.1415   -2.3217    3.5533 C.2       1 <0>         0.0000
     18 C18         3.5456   -1.5407   -0.1588 C.3       1 <0>         0.0000
     19 N1          7.9897   -3.3957    5.7734 N.1       1 <0>         0.0000
     20 N2          4.9153   -1.9062    2.4183 N.2       1 <0>         0.0000
     21 N3          3.6650   -3.0873    3.8833 N.2       1 <0>         0.0000
     22 O1          5.0106   -3.1268    4.2569 O.3       1 <0>         0.0000
     23 H1          8.7765    0.6764   -1.9415 H         1 <0>         0.0000
     24 H2         -0.9293   -1.8910    2.8968 H         1 <0>         0.0000
     25 H3         10.7276    0.0830   -0.5083 H         1 <0>         0.0000
     26 H4          6.4725    0.1357   -1.1754 H         1 <0>         0.0000
     27 H5         -1.0595   -1.2375    0.4866 H         1 <0>         0.0000
     28 H6          1.2827   -2.3836    3.9062 H         1 <0>         0.0000
     29 H7         10.3677   -1.0431    1.6590 H         1 <0>         0.0000
     30 H8          6.1101   -0.9858    0.9978 H         1 <0>         0.0000
     31 H9          1.0057   -1.1005   -0.8611 H         1 <0>         0.0000
     32 H10         9.1140   -1.8969    3.2320 H         1 <0>         0.0000
     33 H11         4.1156   -0.6354    0.0711 H         1 <0>         0.0000
     34 H12         4.2278   -2.3855   -0.0423 H         1 <0>         0.0000
     35 H13         3.2371   -1.4880   -1.2062 H         1 <0>         0.0000
@<TRIPOS>BOND
     1    1   17 1
     2    1   19 3
     3    2    5 ar
     4    2    4 ar
     5    2   23 1
     6    3    6 ar
     7    3    7 ar
     8    3   24 1
     9    4    8 ar
    10    4   25 1
    11    5    9 ar
    12    5   26 1
    13    6   10 ar
    14    6   27 1
    15    7   11 ar
    16    7   28 1
    17    8   12 ar
    18    8   29 1
    19    9   12 ar
    20    9   30 1
    21   10   13 ar
    22   10   31 1
    23   11   13 ar
    24   11   14 1
    25   12   16 1
    26   13   18 1
    27   14   20 1
    28   14   21 2
    29   15   17 1
    30   15   20 2
    31   15   22 1
    32   16   17 2
    33   16   32 1
    34   18   33 1
    35   18   34 1
    36   18   35 1
    37   21   22 1
