@<TRIPOS>MOLECULE
*****
   44    46     0     0     0
SMALL
NO_CHARGES

@<TRIPOS>ATOM
      1 C1          0.9942    5.6792   -0.5793 C.1       1 <0>         0.0000
      2 C2          1.7337    3.3952   -0.1134 C.2       1 <0>         0.0000
      3 C3          1.6957    4.7302    0.2282 C.2       1 <0>         0.0000
      4 C4          2.4319    2.4263    0.6542 C.2       1 <0>         0.0000
      5 C5          3.1211    2.8574    1.7790 C.2       1 <0>         0.0000
      6 C6          2.3774    5.2097    1.4257 C.2       1 <0>         0.0000
      7 C7         -2.2111   -0.3064   -0.3838 C.2       1 <0>         0.0000
      8 C8          2.5295    0.9960    0.2185 C.2       1 <0>         0.0000
      9 C9         -1.5983   -2.0803    1.8300 C.3       1 <0>         0.0000
     10 C10        -0.6282   -0.9381    1.5470 C.3       1 <0>         0.0000
     11 C11         0.0056   -1.3993   -0.8880 C.3       1 <0>         0.0000
     12 C12        -3.0258   -1.5948    1.6204 C.3       1 <0>         0.0000
     13 C13         1.4764   -0.9869   -0.7390 C.3       1 <0>         0.0000
     14 C14         0.0143    0.8560   -0.1258 C.3       1 <0>         0.0000
     15 C15        -0.7560   -0.4634    0.0892 C.3       1 <0>         0.0000
     16 C16         3.9599    1.9891    2.6729 C.3       1 <0>         0.0000
     17 C17        -4.5928   -0.7274   -0.0793 C.3       1 <0>         0.0000
     18 N1          0.4119    6.4280   -1.2567 N.1       1 <0>         0.0000
     19 N2          3.0555    4.1759    2.1116 N.am      1 <0>         0.0000
     20 N3         -3.2053   -0.9133    0.3363 N.am      1 <0>         0.0000
     21 N4          1.4090    0.4179   -0.3016 N.am      1 <0>         0.0000
     22 O1          2.4128    6.3556    1.8595 O.2       1 <0>         0.0000
     23 O2         -2.4441    0.3203   -1.4220 O.2       1 <0>         0.0000
     24 O3          3.5965    0.3736    0.3077 O.2       1 <0>         0.0000
     25 H1          1.2257    3.0814   -1.0200 H         1 <0>         0.0000
     26 H2         -1.3945   -2.9300    1.1692 H         1 <0>         0.0000
     27 H3         -1.4923   -2.4400    2.8585 H         1 <0>         0.0000
     28 H4         -0.8558   -0.1031    2.2222 H         1 <0>         0.0000
     29 H5          0.4041   -1.2368    1.7564 H         1 <0>         0.0000
     30 H6         -0.3485   -1.2075   -1.9038 H         1 <0>         0.0000
     31 H7         -0.1470   -2.4587   -0.6683 H         1 <0>         0.0000
     32 H8         -3.7241   -2.4389    1.6505 H         1 <0>         0.0000
     33 H9         -3.3149   -0.9139    2.4356 H         1 <0>         0.0000
     34 H10         2.0112   -1.5752    0.0126 H         1 <0>         0.0000
     35 H11         2.0364   -1.0731   -1.6743 H         1 <0>         0.0000
     36 H12        -0.3671    1.3522   -1.0219 H         1 <0>         0.0000
     37 H13        -0.0783    1.5346    0.7241 H         1 <0>         0.0000
     38 H14         4.9509    1.8527    2.2306 H         1 <0>         0.0000
     39 H15         3.5283    0.9938    2.7764 H         1 <0>         0.0000
     40 H16         4.0695    2.4430    3.6625 H         1 <0>         0.0000
     41 H17        -5.0814   -1.7011   -0.1981 H         1 <0>         0.0000
     42 H18        -4.6112   -0.1913   -1.0261 H         1 <0>         0.0000
     43 H19        -5.1433   -0.1506    0.6748 H         1 <0>         0.0000
     44 H20         3.5438    4.5019    2.9417 H         1 <0>         0.0000
@<TRIPOS>BOND
     1    1    3 1
     2    1   18 3
     3    2    3 2
     4    2    4 1
     5    2   25 1
     6    3    6 1
     7    4    5 2
     8    4    8 1
     9    5   16 1
    10    5   19 1
    11    6   19 am
    12    6   22 2
    13    7   15 1
    14    7   20 am
    15    7   23 2
    16    8   21 am
    17    8   24 2
    18    9   10 1
    19    9   12 1
    20    9   26 1
    21    9   27 1
    22   10   15 1
    23   10   28 1
    24   10   29 1
    25   11   13 1
    26   11   15 1
    27   11   30 1
    28   11   31 1
    29   12   20 1
    30   12   32 1
    31   12   33 1
    32   13   21 1
    33   13   34 1
    34   13   35 1
    35   14   15 1
    36   14   21 1
    37   14   36 1
    38   14   37 1
    39   16   38 1
    40   16   39 1
    41   16   40 1
    42   17   20 1
    43   17   41 1
    44   17   42 1
    45   17   43 1
    46   19   44 1
