@<TRIPOS>MOLECULE
*****
   21    22     0     0     0
SMALL
NO_CHARGES

@<TRIPOS>ATOM
      1 C1          0.3209   -1.6178    1.0290 C.ar      1 <0>         0.0000
      2 C2          0.1176   -0.2386    1.0409 C.ar      1 <0>         0.0000
      3 C3          0.5926   -2.2608    2.2384 C.ar      1 <0>         0.0000
      4 C4          0.1963    0.4355    2.2696 C.ar      1 <0>         0.0000
      5 C5          1.5106   -3.5355    7.2554 C.2       1 <0>         0.0000
      6 C6          0.6504   -1.4972    3.4151 C.ar      1 <0>         0.0000
      7 C7          1.3478   -1.5498    8.1710 C.2       1 <0>         0.0000
      8 C8          0.9374   -2.1831    4.6858 C.2       1 <0>         0.0000
      9 N1          0.4546   -0.1642    3.4312 N.ar      1 <0>         0.0000
     10 N2          1.7139   -3.6680    8.5376 N.2       1 <0>         0.0000
     11 N3          1.6117   -2.4068    9.1277 N.2       1 <0>         0.0000
     12 N4          1.0009   -1.5298    5.7884 N.2       1 <0>         0.0000
     13 N5          1.2693   -2.2021    6.9468 N.pl3     1 <0>         0.0000
     14 S1          1.1229    0.1753    8.3862 S.3       1 <0>         0.0000
     15 H1          0.2699   -2.1823    0.1020 H         1 <0>         0.0000
     16 H2         -0.0970    0.3107    0.1289 H         1 <0>         0.0000
     17 H3          0.7573   -3.3347    2.2725 H         1 <0>         0.0000
     18 H4          0.0423    1.5129    2.3120 H         1 <0>         0.0000
     19 H5          1.5274   -4.3381    6.5331 H         1 <0>         0.0000
     20 H6          1.0892   -3.2642    4.6266 H         1 <0>         0.0000
     21 H7          0.9006    0.4006    7.0722 H         1 <0>         0.0000
@<TRIPOS>BOND
     1    1    2 ar
     2    1    3 ar
     3    1   15 1
     4    2    4 ar
     5    2   16 1
     6    3    6 ar
     7    3   17 1
     8    4    9 ar
     9    4   18 1
    10    5   10 2
    11    5   13 1
    12    5   19 1
    13    6    8 1
    14    6    9 ar
    15    7   11 2
    16    7   13 1
    17    7   14 1
    18    8   12 2
    19    8   20 1
    20   10   11 1
    21   12   13 1
    22   14   21 1
