@<TRIPOS>MOLECULE
*****
   20    21     0     0     0
SMALL
NO_CHARGES

@<TRIPOS>ATOM
      1 C1          1.9106   -1.0170   -0.2079 C.ar      1 <0>         0.0000
      2 C2          0.8356   -0.4158    0.4442 C.ar      1 <0>         0.0000
      3 C3          2.9344   -1.6229    0.5276 C.ar      1 <0>         0.0000
      4 C4         -3.4728   -0.2269    0.8150 C.2       1 <0>         0.0000
      5 C5         -4.0786    0.6432    1.6929 C.2       1 <0>         0.0000
      6 C6          0.7703   -0.3831    1.8488 C.ar      1 <0>         0.0000
      7 C7          2.8657   -1.6073    1.9147 C.ar      1 <0>         0.0000
      8 C8          1.8057   -0.9877    2.5764 C.ar      1 <0>         0.0000
      9 C9         -1.7012    0.2979    2.0275 C.2       1 <0>         0.0000
     10 C10        -0.3177    0.3411    2.5756 C.2       1 <0>         0.0000
     11 N1         -2.1319   -0.4146    1.0126 N.2       1 <0>         0.0000
     12 O1         -0.1057    0.9703    3.6065 O.2       1 <0>         0.0000
     13 F1          3.8330   -2.1967    2.6480 F         1 <0>         0.0000
     14 F2          1.7910   -1.0251    3.9164 F         1 <0>         0.0000
     15 S1         -2.9351    1.2582    2.8231 S.3       1 <0>         0.0000
     16 H1          1.9525   -1.0221   -1.2926 H         1 <0>         0.0000
     17 H2          0.0386    0.0385   -0.1306 H         1 <0>         0.0000
     18 H3          3.7784   -2.1089    0.0473 H         1 <0>         0.0000
     19 H4         -3.9754   -0.7534    0.0109 H         1 <0>         0.0000
     20 H5         -5.1200    0.9374    1.7249 H         1 <0>         0.0000
@<TRIPOS>BOND
     1    1    2 ar
     2    1    3 ar
     3    1   16 1
     4    2    6 ar
     5    2   17 1
     6    3    7 ar
     7    3   18 1
     8    4    5 2
     9    4   11 1
    10    4   19 1
    11    5   15 1
    12    5   20 1
    13    6    8 ar
    14    6   10 1
    15    7    8 ar
    16    7   13 1
    17    8   14 1
    18    9   10 1
    19    9   11 2
    20    9   15 1
    21   10   12 2
