@<TRIPOS>MOLECULE
*****
   24    26     0     0     0
SMALL
NO_CHARGES

@<TRIPOS>ATOM
      1 C1          0.4476    2.3775    1.7390 C.ar      1 <0>         0.0000
      2 C2         -1.0490    1.9525    4.1214 C.ar      1 <0>         0.0000
      3 C3         -0.4220    1.2666    1.8259 C.ar      1 <0>         0.0000
      4 C4          0.5451    3.2282    2.8220 C.ar      1 <0>         0.0000
      5 C5         -0.1907    3.0261    3.9868 C.ar      1 <0>         0.0000
      6 C6         -1.1368    1.0833    3.0180 C.ar      1 <0>         0.0000
      7 C7          0.3778   -0.9670    0.8201 C.3       1 <0>         0.0000
      8 C8          1.2697   -0.2970   -0.2553 C.3       1 <0>         0.0000
      9 C9          1.1758    4.7621    4.3233 C.3       1 <0>         0.0000
     10 C10        -0.5560    0.2789    0.6788 C.3       1 <0>         0.0000
     11 N1          0.1287    0.5907   -0.5976 N.3       1 <0>         0.0000
     12 O1          1.2950    4.3796    2.9420 O.3       1 <0>         0.0000
     13 O2          0.0627    4.0431    4.8822 O.3       1 <0>         0.0000
     14 Br1        -2.2883   -0.4474    3.2250 Br        1 <0>         0.0000
     15 H1          1.0348    2.5617    0.8458 H         1 <0>         0.0000
     16 H2         -1.6238    1.7868    5.0253 H         1 <0>         0.0000
     17 H3         -0.1015   -1.8836    0.4716 H         1 <0>         0.0000
     18 H4          0.8172   -1.1307    1.8049 H         1 <0>         0.0000
     19 H5          2.1358    0.2190    0.1831 H         1 <0>         0.0000
     20 H6          1.6106   -0.9235   -1.0862 H         1 <0>         0.0000
     21 H7          2.0935    4.4814    4.8577 H         1 <0>         0.0000
     22 H8          0.9818    5.8344    4.3864 H         1 <0>         0.0000
     23 H9         -1.6160    0.0494    0.5364 H         1 <0>         0.0000
     24 H10         0.3395    1.5679   -0.7862 H         1 <0>         0.0000
@<TRIPOS>BOND
     1    1    3 ar
     2    1    4 ar
     3    1   15 1
     4    2    5 ar
     5    2    6 ar
     6    2   16 1
     7    3    6 ar
     8    3   10 1
     9    4    5 ar
    10    4   12 1
    11    5   13 1
    12    6   14 1
    13    7    8 1
    14    7   10 1
    15    7   17 1
    16    7   18 1
    17    8   11 1
    18    8   19 1
    19    8   20 1
    20    9   12 1
    21    9   13 1
    22    9   21 1
    23    9   22 1
    24   10   11 1
    25   10   23 1
    26   11   24 1
