@<TRIPOS>MOLECULE
*****
   22    22     0     0     0
SMALL
NO_CHARGES

@<TRIPOS>ATOM
      1 C1          1.7601   -0.9633   -0.1925 C.ar      1 <0>         0.0000
      2 C2          0.7065   -0.4062    0.5343 C.ar      1 <0>         0.0000
      3 C3          2.8354   -1.5765    0.4551 C.ar      1 <0>         0.0000
      4 C4          1.8129   -1.0819    2.5911 C.ar      1 <0>         0.0000
      5 C5          0.7455   -0.4725    1.9304 C.ar      1 <0>         0.0000
      6 C6          2.8716   -1.6416    1.8582 C.ar      1 <0>         0.0000
      7 C7          6.5220   -3.6704    2.2233 C.3       1 <0>         0.0000
      8 C8          5.3411   -2.9941    1.5249 C.3       1 <0>         0.0000
      9 C9         -0.3650    0.1127    2.7641 C.3       1 <0>         0.0000
     10 F1         -1.3400    0.6730    2.0103 F         1 <0>         0.0000
     11 F2         -0.9578   -0.8281    3.5468 F         1 <0>         0.0000
     12 F3          0.0914    1.0776    3.6065 F         1 <0>         0.0000
     13 S1          4.1764   -2.3905    2.8019 S.3       1 <0>         0.0000
     14 H1          1.7474   -0.9214   -1.2782 H         1 <0>         0.0000
     15 H2         -0.1270    0.0692    0.0295 H         1 <0>         0.0000
     16 H3          3.6364   -1.9986   -0.1411 H         1 <0>         0.0000
     17 H4          1.8233   -1.1226    3.6773 H         1 <0>         0.0000
     18 H5          7.0462   -2.9729    2.8833 H         1 <0>         0.0000
     19 H6          6.1936   -4.5267    2.8199 H         1 <0>         0.0000
     20 H7          7.2355   -4.0312    1.4757 H         1 <0>         0.0000
     21 H8          4.8236   -3.7039    0.8727 H         1 <0>         0.0000
     22 H9          5.6848   -2.1482    0.9223 H         1 <0>         0.0000
@<TRIPOS>BOND
     1    1    2 ar
     2    1    3 ar
     3    1   14 1
     4    2    5 ar
     5    2   15 1
     6    3    6 ar
     7    3   16 1
     8    4    5 ar
     9    4    6 ar
    10    4   17 1
    11    5    9 1
    12    6   13 1
    13    7    8 1
    14    7   18 1
    15    7   19 1
    16    7   20 1
    17    8   13 1
    18    8   21 1
    19    8   22 1
    20    9   10 1
    21    9   11 1
    22    9   12 1
