@<TRIPOS>MOLECULE
*****
   16    16     0     0     0
SMALL
NO_CHARGES

@<TRIPOS>ATOM
      1 C1          1.7995   -0.8514    0.0617 C.ar      1 <0>         0.0000
      2 C2          0.8096   -0.2444    0.8290 C.ar      1 <0>         0.0000
      3 C3          1.7732   -1.2585    2.8124 C.ar      1 <0>         0.0000
      4 C4          2.7769   -1.6870    0.6284 C.ar      1 <0>         0.0000
      5 C5          2.7601   -1.8708    2.0290 C.ar      1 <0>         0.0000
      6 C6          0.8033   -0.4596    2.2071 C.ar      1 <0>         0.0000
      7 C7          3.7476   -2.2836   -0.3744 C.2       1 <0>         0.0000
      8 O1          3.8536   -1.8201   -1.4913 O.2       1 <0>         0.0000
      9 O2          4.4697   -3.3656   -0.0197 O.3       1 <0>         0.0000
     10 S1          3.9234   -2.9194    2.9383 S.3       1 <0>         0.0000
     11 Br1        -0.5408    0.3601    3.2904 Br        1 <0>         0.0000
     12 H1          1.8337   -0.6940   -1.0110 H         1 <0>         0.0000
     13 H2          0.0584    0.3849    0.3633 H         1 <0>         0.0000
     14 H3          1.7743   -1.4010    3.8871 H         1 <0>         0.0000
     15 H4          4.2986   -3.6094    0.9181 H         1 <0>         0.0000
     16 H5          5.0103   -2.1275    2.7990 H         1 <0>         0.0000
@<TRIPOS>BOND
     1    1    2 ar
     2    1    4 ar
     3    1   12 1
     4    2    6 ar
     5    2   13 1
     6    3    5 ar
     7    3    6 ar
     8    3   14 1
     9    4    5 ar
    10    4    7 1
    11    5   10 1
    12    6   11 1
    13    7    8 2
    14    7    9 1
    15    9   15 1
    16   10   16 1
