@<TRIPOS>MOLECULE
*****
   26    27     0     0     0
SMALL
NO_CHARGES

@<TRIPOS>ATOM
      1 C1          5.5123    0.0405    0.7175 C.ar      1 <0>         0.0000
      2 C2          7.0153   -1.8232    0.3425 C.ar      1 <0>         0.0000
      3 C3          2.0941   -0.9147   -0.0282 C.ar      1 <0>         0.0000
      4 C4          6.6060    0.8653    0.9959 C.ar      1 <0>         0.0000
      5 C5          8.1094   -0.9990    0.6021 C.ar      1 <0>         0.0000
      6 C6          0.9493   -0.3136    0.4947 C.ar      1 <0>         0.0000
      7 C7          1.5273   -1.1842    2.6852 C.ar      1 <0>         0.0000
      8 C8          2.6893   -1.7685    2.1637 C.ar      1 <0>         0.0000
      9 C9          5.7084   -1.3103    0.3922 C.ar      1 <0>         0.0000
     10 C10         2.9794   -1.6302    0.7902 C.ar      1 <0>         0.0000
     11 C11         7.8982    0.3434    0.9307 C.ar      1 <0>         0.0000
     12 C12         0.6789   -0.4515    1.8574 C.ar      1 <0>         0.0000
     13 C13         3.5030   -2.5633    3.1624 C.2       1 <0>         0.0000
     14 O1          2.9720   -3.3195    3.9447 O.2       1 <0>         0.0000
     15 O2          4.8385   -2.3556    3.2093 O.3       1 <0>         0.0000
     16 S1          4.3708   -2.4360   -0.0027 S.3       1 <0>         0.0000
     17 Cl1         9.2702    1.3774    1.2739 Cl        1 <0>         0.0000
     18 Cl2        -0.7541    0.2895    2.5341 Cl        1 <0>         0.0000
     19 H1          4.5113    0.4583    0.7579 H         1 <0>         0.0000
     20 H2          7.1786   -2.8737    0.1176 H         1 <0>         0.0000
     21 H3          2.3097   -0.8299   -1.0888 H         1 <0>         0.0000
     22 H4          6.4505    1.9080    1.2545 H         1 <0>         0.0000
     23 H5          9.1173   -1.3999    0.5667 H         1 <0>         0.0000
     24 H6          0.2754    0.2461   -0.1460 H         1 <0>         0.0000
     25 H7          1.2910   -1.3225    3.7348 H         1 <0>         0.0000
     26 H8          5.1279   -1.7124    2.5356 H         1 <0>         0.0000
@<TRIPOS>BOND
     1    1    4 ar
     2    1    9 ar
     3    1   19 1
     4    2    5 ar
     5    2    9 ar
     6    2   20 1
     7    3    6 ar
     8    3   10 ar
     9    3   21 1
    10    4   11 ar
    11    4   22 1
    12    5   11 ar
    13    5   23 1
    14    6   12 ar
    15    6   24 1
    16    7    8 ar
    17    7   12 ar
    18    7   25 1
    19    8   10 ar
    20    8   13 1
    21    9   16 1
    22   10   16 1
    23   11   17 1
    24   12   18 1
    25   13   14 2
    26   13   15 1
    27   15   26 1
