@<TRIPOS>MOLECULE
*****
   41    43     0     0     0
SMALL
NO_CHARGES

@<TRIPOS>ATOM
      1 C1         -3.9304   -2.2764    1.1191 C.ar      1 <0>         0.0000
      2 C2         -3.0131   -1.9922    2.1382 C.ar      1 <0>         0.0000
      3 C3         -3.5989   -3.2162    0.1381 C.ar      1 <0>         0.0000
      4 C4         -1.7674   -2.6252    2.1616 C.ar      1 <0>         0.0000
      5 C5         -2.3525   -3.8497    0.1665 C.ar      1 <0>         0.0000
      6 C6         -1.4176   -3.5513    1.1660 C.ar      1 <0>         0.0000
      7 C7          1.0451   -3.0711    1.2783 C.2       1 <0>         0.0000
      8 C8          1.4971    0.0479    1.0700 C.3       1 <0>         0.0000
      9 C9         -0.5227   -1.2369   -1.1582 C.3       1 <0>         0.0000
     10 C10         2.2078   -1.1347    0.4017 C.3       1 <0>         0.0000
     11 C11         0.5758   -2.3020   -1.0659 C.3       1 <0>         0.0000
     12 C12        -0.8741    1.0233    1.0361 C.3       1 <0>         0.0000
     13 C13         0.4322    0.7979    0.2284 C.3       1 <0>         0.0000
     14 C14        -0.0027    0.1999   -1.1266 C.3       1 <0>         0.0000
     15 C15        -0.0257   -4.1589    1.1530 C.3       1 <0>         0.0000
     16 N1         -1.9673    1.4043    0.1118 N.pl3     1 <0>         0.0000
     17 N2          1.3194   -2.2823    0.1884 N.am      1 <0>         0.0000
     18 O1          1.6110   -2.8886    2.3603 O.2       1 <0>         0.0000
     19 O2         -2.4576    0.7228   -2.3178 O.2       1 <0>         0.0000
     20 O3         -0.8421    2.6372   -1.8715 O.2       1 <0>         0.0000
     21 S1         -1.4058    1.3389   -1.4985 S.o2      1 <0>         0.0000
     22 H1         -4.8963   -1.7787    1.0953 H         1 <0>         0.0000
     23 H2         -3.2690   -1.2769    2.9163 H         1 <0>         0.0000
     24 H3         -4.3044   -3.4466   -0.6556 H         1 <0>         0.0000
     25 H4         -1.0520   -2.3927    2.9467 H         1 <0>         0.0000
     26 H5         -2.0986   -4.5671   -0.6111 H         1 <0>         0.0000
     27 H6          1.0509   -0.3307    1.9940 H         1 <0>         0.0000
     28 H7          2.2641    0.7659    1.3783 H         1 <0>         0.0000
     29 H8         -1.0663   -1.3888   -2.0962 H         1 <0>         0.0000
     30 H9         -1.2444   -1.3953   -0.3551 H         1 <0>         0.0000
     31 H10         2.6310   -0.8515   -0.5673 H         1 <0>         0.0000
     32 H11         3.0265   -1.4598    1.0453 H         1 <0>         0.0000
     33 H12         0.1246   -3.2829   -1.2075 H         1 <0>         0.0000
     34 H13         1.2918   -2.1674   -1.8860 H         1 <0>         0.0000
     35 H14        -1.1497    0.1022    1.5563 H         1 <0>         0.0000
     36 H15        -0.7222    1.8101    1.7801 H         1 <0>         0.0000
     37 H16         0.8371    1.7839   -0.0160 H         1 <0>         0.0000
     38 H17         0.7406    0.3818   -1.9075 H         1 <0>         0.0000
     39 H18         0.1206   -4.8020    2.0239 H         1 <0>         0.0000
     40 H19         0.1133   -4.7744    0.2601 H         1 <0>         0.0000
     41 H20        -2.7804    0.7948    0.1824 H         1 <0>         0.0000
@<TRIPOS>BOND
     1    1    3 ar
     2    1    2 ar
     3    1   22 1
     4    2    4 ar
     5    2   23 1
     6    3    5 ar
     7    3   24 1
     8    4    6 ar
     9    4   25 1
    10    5    6 ar
    11    5   26 1
    12    6   15 1
    13    7   15 1
    14    7   17 am
    15    7   18 2
    16    8   10 1
    17    8   13 1
    18    8   27 1
    19    8   28 1
    20    9   11 1
    21    9   14 1
    22    9   29 1
    23    9   30 1
    24   10   17 1
    25   10   31 1
    26   10   32 1
    27   11   17 1
    28   11   33 1
    29   11   34 1
    30   12   13 1
    31   12   16 1
    32   12   35 1
    33   12   36 1
    34   13   14 1
    35   13   37 1
    36   14   21 1
    37   14   38 1
    38   15   39 1
    39   15   40 1
    40   16   21 1
    41   16   41 1
    42   19   21 2
    43   20   21 2
