@<TRIPOS>MOLECULE
*****
   19    20     0     0     0
SMALL
NO_CHARGES

@<TRIPOS>ATOM
      1 C1          1.2496    1.7937    1.9032 C.ar      1 <0>         0.0000
      2 C2          1.5355    2.5701    3.0227 C.ar      1 <0>         0.0000
      3 C3         -0.4740    2.1294    4.0424 C.ar      1 <0>         0.0000
      4 C4          0.0053    1.1388    1.8576 C.ar      1 <0>         0.0000
      5 C5         -0.6162    0.2706    0.8765 C.2       1 <0>         0.0000
      6 C6         -0.8561    1.3265    2.9622 C.ar      1 <0>         0.0000
      7 C7         -1.8784   -0.1731    1.2215 C.2       1 <0>         0.0000
      8 C8         -2.8289   -1.0686    0.4866 C.3       1 <0>         0.0000
      9 N1          0.7070    2.7447    4.0744 N.ar      1 <0>         0.0000
     10 N2          0.0202   -0.1080   -0.3642 N.pl3     1 <0>         0.0000
     11 O1         -0.5960   -0.8575   -1.1377 O.3       1 <0>         0.0000
     12 O2          1.1537    0.3389   -0.5909 O.2       1 <0>         0.0000
     13 S1         -2.3645    0.4535    2.7668 S.3       1 <0>         0.0000
     14 H1          1.9614    1.6974    1.0947 H         1 <0>         0.0000
     15 H2          2.4897    3.0889    3.0870 H         1 <0>         0.0000
     16 H3         -1.1345    2.2771    4.8958 H         1 <0>         0.0000
     17 H4         -3.7492   -1.2112    1.0581 H         1 <0>         0.0000
     18 H5         -3.0746   -0.6452   -0.4906 H         1 <0>         0.0000
     19 H6         -2.3685   -2.0418    0.2981 H         1 <0>         0.0000
@<TRIPOS>BOND
     1    1    2 ar
     2    1    4 ar
     3    1   14 1
     4    2    9 ar
     5    2   15 1
     6    3    6 ar
     7    3    9 ar
     8    3   16 1
     9    4    5 1
    10    4    6 ar
    11    5    7 2
    12    5   10 1
    13    6   13 1
    14    7    8 1
    15    7   13 1
    16    8   17 1
    17    8   18 1
    18    8   19 1
    19   10   11 1
    20   10   12 2
