@<TRIPOS>MOLECULE
*****
   44    46     0     0     0
SMALL
NO_CHARGES

@<TRIPOS>ATOM
      1 C1          2.2893    4.4385    2.0895 C.1       1 <0>         0.0000
      2 C2          2.4500    2.8223    0.2690 C.2       1 <0>         0.0000
      3 C3          2.5385    4.1230    0.7176 C.2       1 <0>         0.0000
      4 C4          2.6808    2.4605   -1.0818 C.2       1 <0>         0.0000
      5 C5          3.0522    3.4549   -1.9706 C.2       1 <0>         0.0000
      6 C6          2.8823    5.2029   -0.2026 C.2       1 <0>         0.0000
      7 C7         -1.9577   -0.2628   -0.1631 C.2       1 <0>         0.0000
      8 C8          2.6416    1.0227   -1.5111 C.2       1 <0>         0.0000
      9 C9         -0.5750    0.3788    2.3116 C.3       1 <0>         0.0000
     10 C10         0.1005   -0.5950    1.3518 C.3       1 <0>         0.0000
     11 C11         0.0672   -1.5526   -1.0087 C.3       1 <0>         0.0000
     12 C12        -2.0737    0.1139    2.3263 C.3       1 <0>         0.0000
     13 C13         1.5001   -1.1495   -1.4028 C.3       1 <0>         0.0000
     14 C14         0.2255    0.8066   -0.7595 C.3       1 <0>         0.0000
     15 C15        -0.4286   -0.4179   -0.0812 C.3       1 <0>         0.0000
     16 C16         3.4086    3.2287   -3.4116 C.3       1 <0>         0.0000
     17 C17        -4.1029    0.1469    0.9201 C.3       1 <0>         0.0000
     18 N1          2.0644    4.6457    3.2145 N.1       1 <0>         0.0000
     19 N2          3.1260    4.7370   -1.5153 N.am      1 <0>         0.0000
     20 N3         -2.6474    0.0428    0.9790 N.am      1 <0>         0.0000
     21 N4          1.5516    0.2990   -1.1339 N.am      1 <0>         0.0000
     22 O1          2.9758    6.3983    0.0513 O.2       1 <0>         0.0000
     23 O2         -2.5178   -0.3661   -1.2592 O.2       1 <0>         0.0000
     24 O3          3.5809    0.5178   -2.1367 O.2       1 <0>         0.0000
     25 H1          2.2160    2.0413    0.9869 H         1 <0>         0.0000
     26 H2         -0.1834    0.2662    3.3273 H         1 <0>         0.0000
     27 H3         -0.3861    1.4161    2.0125 H         1 <0>         0.0000
     28 H4          1.1889   -0.4712    1.3612 H         1 <0>         0.0000
     29 H5         -0.0993   -1.6215    1.6840 H         1 <0>         0.0000
     30 H6         -0.5790   -1.5900   -1.8868 H         1 <0>         0.0000
     31 H7          0.0344   -2.5282   -0.5168 H         1 <0>         0.0000
     32 H8         -2.2846   -0.8262    2.8584 H         1 <0>         0.0000
     33 H9         -2.5956    0.9098    2.8687 H         1 <0>         0.0000
     34 H10         2.2688   -1.6505   -0.8063 H         1 <0>         0.0000
     35 H11         1.7209   -1.3533   -2.4540 H         1 <0>         0.0000
     36 H12        -0.3503    1.0857   -1.6499 H         1 <0>         0.0000
     37 H13         0.2852    1.6748   -0.1057 H         1 <0>         0.0000
     38 H14         3.2467    4.1351   -4.0025 H         1 <0>         0.0000
     39 H15         2.8255    2.4128   -3.8385 H         1 <0>         0.0000
     40 H16         4.4607    2.9379   -3.4885 H         1 <0>         0.0000
     41 H17        -4.5654   -0.6403    1.5287 H         1 <0>         0.0000
     42 H18        -4.4252    0.0407   -0.1137 H         1 <0>         0.0000
     43 H19        -4.4250    1.1203    1.3071 H         1 <0>         0.0000
     44 H20         3.3808    5.4791   -2.1621 H         1 <0>         0.0000
@<TRIPOS>BOND
     1    1    3 1
     2    1   18 3
     3    2    3 2
     4    2    4 1
     5    2   25 1
     6    3    6 1
     7    4    5 2
     8    4    8 1
     9    5   16 1
    10    5   19 1
    11    6   19 am
    12    6   22 2
    13    7   15 1
    14    7   20 am
    15    7   23 2
    16    8   21 am
    17    8   24 2
    18    9   10 1
    19    9   12 1
    20    9   26 1
    21    9   27 1
    22   10   15 1
    23   10   28 1
    24   10   29 1
    25   11   13 1
    26   11   15 1
    27   11   30 1
    28   11   31 1
    29   12   20 1
    30   12   32 1
    31   12   33 1
    32   13   21 1
    33   13   34 1
    34   13   35 1
    35   14   15 1
    36   14   21 1
    37   14   36 1
    38   14   37 1
    39   16   38 1
    40   16   39 1
    41   16   40 1
    42   17   20 1
    43   17   41 1
    44   17   42 1
    45   17   43 1
    46   19   44 1
