@<TRIPOS>MOLECULE
*****
   18    18     0     0     0
SMALL
NO_CHARGES

@<TRIPOS>ATOM
      1 C1          1.8806   -1.0786   -0.0801 C.ar      1 <0>         0.0000
      2 C2          0.7739   -0.5368    0.5661 C.ar      1 <0>         0.0000
      3 C3          1.8019   -1.0535    2.7214 C.ar      1 <0>         0.0000
      4 C4          2.9574   -1.5751    0.6589 C.ar      1 <0>         0.0000
      5 C5          2.9176   -1.5649    2.0614 C.ar      1 <0>         0.0000
      6 C6          0.7596   -0.5349    1.9590 C.ar      1 <0>         0.0000
      7 C7          4.7517   -1.3751    3.5373 C.3       1 <0>         0.0000
      8 N1          4.1113   -2.1006   -0.0879 N.pl3     1 <0>         0.0000
      9 O1          5.2248   -2.0293    0.4335 O.3       1 <0>         0.0000
     10 O2          3.8803   -2.5599   -1.2122 O.2       1 <0>         0.0000
     11 O3          3.9290   -2.1743    2.7917 O.3       1 <0>         0.0000
     12 F1         -0.3115   -0.0291    2.5998 F         1 <0>         0.0000
     13 F2          5.1551   -0.2802    2.8730 F         1 <0>         0.0000
     14 F3          5.8090   -2.1012    3.8900 F         1 <0>         0.0000
     15 F4          4.1347   -0.9462    4.6691 F         1 <0>         0.0000
     16 H1          1.9313   -1.1187   -1.1620 H         1 <0>         0.0000
     17 H2         -0.0665   -0.1309    0.0131 H         1 <0>         0.0000
     18 H3          1.7417   -1.0693    3.8035 H         1 <0>         0.0000
@<TRIPOS>BOND
     1    1    2 ar
     2    1    4 ar
     3    1   16 1
     4    2    6 ar
     5    2   17 1
     6    3    5 ar
     7    3    6 ar
     8    3   18 1
     9    4    5 ar
    10    4    8 1
    11    5   11 1
    12    6   12 1
    13    7   11 1
    14    7   13 1
    15    7   14 1
    16    7   15 1
    17    8    9 1
    18    8   10 2
