@<TRIPOS>MOLECULE
*****
   41    42     0     0     0
SMALL
NO_CHARGES

@<TRIPOS>ATOM
      1 C1          1.1137    0.2431   -1.0745 C.2       1 <0>         0.0000
      2 C2          0.2852    0.4386    2.6102 C.3       1 <0>         0.0000
      3 C3          0.1450   -1.0902    2.7089 C.3       1 <0>         0.0000
      4 C4         -0.5869    0.8216    1.3986 C.3       1 <0>         0.0000
      5 C5          0.1469   -1.5410    1.2400 C.3       1 <0>         0.0000
      6 C6         -2.4037    0.5186   -1.6157 C.3       1 <0>         0.0000
      7 C7         -1.1427   -0.2588   -1.9890 C.3       1 <0>         0.0000
      8 C8         -2.1258   -0.9271    0.3442 C.3       1 <0>         0.0000
      9 C9         -0.6615   -0.4489    0.4869 C.3       1 <0>         0.0000
     10 C10         3.8175   -0.0828   -2.4034 C.3       1 <0>         0.0000
     11 C11         2.5947    0.9782   -4.3299 C.3       1 <0>         0.0000
     12 C12         2.9828    2.3149   -2.2337 C.3       1 <0>         0.0000
     13 C13         2.7294    0.9170   -2.8062 C.3       1 <0>         0.0000
     14 N1         -3.0180   -0.0292   -0.3887 N.3       1 <0>         0.0000
     15 N2         -0.1659   -0.2036   -0.8944 N.am      1 <0>         0.0000
     16 O1          1.9056    0.4473   -0.1569 O.2       1 <0>         0.0000
     17 O2          1.4050    0.4245   -2.3932 O.3       1 <0>         0.0000
     18 H1         -0.0149    0.9549    3.5280 H         1 <0>         0.0000
     19 H2          1.3261    0.6948    2.3975 H         1 <0>         0.0000
     20 H3          0.9463   -1.5557    3.2912 H         1 <0>         0.0000
     21 H4         -0.8042   -1.3558    3.1923 H         1 <0>         0.0000
     22 H5         -1.5977    1.0946    1.7265 H         1 <0>         0.0000
     23 H6         -0.1821    1.6780    0.8573 H         1 <0>         0.0000
     24 H7          1.1706   -1.5652    0.8657 H         1 <0>         0.0000
     25 H8         -0.2918   -2.5341    1.0923 H         1 <0>         0.0000
     26 H9         -2.1254    1.5745   -1.4885 H         1 <0>         0.0000
     27 H10        -3.1154    0.4633   -2.4497 H         1 <0>         0.0000
     28 H11        -1.3939   -1.3003   -2.2240 H         1 <0>         0.0000
     29 H12        -0.6952    0.1728   -2.8802 H         1 <0>         0.0000
     30 H13        -2.1322   -1.9080   -0.1439 H         1 <0>         0.0000
     31 H14        -2.5364   -1.0824    1.3455 H         1 <0>         0.0000
     32 H15         3.9285   -0.1302   -1.3201 H         1 <0>         0.0000
     33 H16         3.5717   -1.0810   -2.7801 H         1 <0>         0.0000
     34 H17         4.7725    0.2217   -2.8445 H         1 <0>         0.0000
     35 H18         1.7919    1.6634   -4.6189 H         1 <0>         0.0000
     36 H19         2.3679   -0.0120   -4.7363 H         1 <0>         0.0000
     37 H20         3.5291    1.3313   -4.7761 H         1 <0>         0.0000
     38 H21         2.1549    2.9845   -2.4893 H         1 <0>         0.0000
     39 H22         3.0927    2.2846   -1.1497 H         1 <0>         0.0000
     40 H23         3.8989    2.7259   -2.6709 H         1 <0>         0.0000
     41 H24        -3.3127    0.7314    0.2152 H         1 <0>         0.0000
@<TRIPOS>BOND
     1    1   15 am
     2    1   16 2
     3    1   17 1
     4    2    3 1
     5    2    4 1
     6    2   18 1
     7    2   19 1
     8    3    5 1
     9    3   20 1
    10    3   21 1
    11    4    9 1
    12    4   22 1
    13    4   23 1
    14    5    9 1
    15    5   24 1
    16    5   25 1
    17    6    7 1
    18    6   14 1
    19    6   26 1
    20    6   27 1
    21    7   15 1
    22    7   28 1
    23    7   29 1
    24    8    9 1
    25    8   14 1
    26    8   30 1
    27    8   31 1
    28    9   15 1
    29   10   13 1
    30   10   32 1
    31   10   33 1
    32   10   34 1
    33   11   13 1
    34   11   35 1
    35   11   36 1
    36   11   37 1
    37   12   13 1
    38   12   38 1
    39   12   39 1
    40   12   40 1
    41   13   17 1
    42   14   41 1
