@<TRIPOS>MOLECULE
*****
   44    46     0     0     0
SMALL
NO_CHARGES

@<TRIPOS>ATOM
      1 C1         -2.2614    5.3646   -0.4948 C.2       1 <0>         0.0000
      2 C2         -1.9955    3.3364   -1.8051 C.2       1 <0>         0.0000
      3 C3         -2.3110    3.9395   -0.6043 C.2       1 <0>         0.0000
      4 C4         -1.9284    6.1332   -1.5780 C.2       1 <0>         0.0000
      5 C5         -1.6072    4.1138   -2.9647 C.2       1 <0>         0.0000
      6 C6         -0.4735   -0.5665    1.8153 C.2       1 <0>         0.0000
      7 C7         -2.1877    1.8493   -1.9632 C.2       1 <0>         0.0000
      8 C8          1.0310    1.2103   -0.8324 C.3       1 <0>         0.0000
      9 C9         -0.0165   -1.0213   -1.3396 C.3       1 <0>         0.0000
     10 C10         0.2938    1.5633   -2.1391 C.3       1 <0>         0.0000
     11 C11        -1.2248   -0.3840   -2.0514 C.3       1 <0>         0.0000
     12 C12         1.5399   -0.8113    0.6798 C.3       1 <0>         0.0000
     13 C13         0.5205   -0.1070   -0.2343 C.3       1 <0>         0.0000
     14 C14        -2.7399    3.1288    0.5941 C.3       1 <0>         0.0000
     15 C15        -1.8757    7.6342   -1.5776 C.3       1 <0>         0.0000
     16 C16         1.2297   -1.9639    2.9184 C.3       1 <0>         0.0000
     17 N1         -1.6209    5.5034   -2.7539 N.am      1 <0>         0.0000
     18 N2          0.6889   -1.3043    1.7453 N.am      1 <0>         0.0000
     19 N3         -1.0750    1.0717   -2.1064 N.am      1 <0>         0.0000
     20 O1         -1.2638    3.6693   -4.0684 O.2       1 <0>         0.0000
     21 O2         -1.2983   -0.5571    2.7049 O.2       1 <0>         0.0000
     22 O3         -3.3227    1.3695   -1.9082 O.2       1 <0>         0.0000
     23 O4         -0.5820    0.1941    0.6791 O.3       1 <0>         0.0000
     24 H1         -2.5030    5.8466    0.4461 H         1 <0>         0.0000
     25 H2          2.1064    1.1276   -1.0307 H         1 <0>         0.0000
     26 H3          0.8935    1.9958   -0.0835 H         1 <0>         0.0000
     27 H4         -0.3087   -1.9893   -0.9212 H         1 <0>         0.0000
     28 H5          0.8020   -1.2088   -2.0449 H         1 <0>         0.0000
     29 H6          0.3016    2.6349   -2.3151 H         1 <0>         0.0000
     30 H7          0.8000    1.1081   -2.9987 H         1 <0>         0.0000
     31 H8         -1.3320   -0.7976   -3.0624 H         1 <0>         0.0000
     32 H9         -2.1474   -0.5929   -1.5106 H         1 <0>         0.0000
     33 H10         2.0577   -1.6248    0.1608 H         1 <0>         0.0000
     34 H11         2.2960   -0.1080    1.0637 H         1 <0>         0.0000
     35 H12        -3.7935    2.8499    0.4892 H         1 <0>         0.0000
     36 H13        -2.6245    3.7030    1.5174 H         1 <0>         0.0000
     37 H14        -2.1756    2.1982    0.6859 H         1 <0>         0.0000
     38 H15        -0.8769    7.9944   -1.8508 H         1 <0>         0.0000
     39 H16        -2.1217    8.0259   -0.5893 H         1 <0>         0.0000
     40 H17        -2.5890    8.0506   -2.2983 H         1 <0>         0.0000
     41 H18         1.7007   -2.9103    2.6347 H         1 <0>         0.0000
     42 H19         0.4087   -2.1637    3.6080 H         1 <0>         0.0000
     43 H20         1.9752   -1.3355    3.4261 H         1 <0>         0.0000
     44 H21        -1.3616    6.0471   -3.5719 H         1 <0>         0.0000
@<TRIPOS>BOND
     1    1    3 1
     2    1    4 2
     3    1   24 1
     4    2    3 2
     5    2    5 1
     6    2    7 1
     7    3   14 1
     8    4   15 1
     9    4   17 1
    10    5   17 am
    11    5   20 2
    12    6   18 am
    13    6   21 2
    14    6   23 1
    15    7   19 am
    16    7   22 2
    17    8   10 1
    18    8   13 1
    19    8   25 1
    20    8   26 1
    21    9   11 1
    22    9   13 1
    23    9   27 1
    24    9   28 1
    25   10   19 1
    26   10   29 1
    27   10   30 1
    28   11   19 1
    29   11   31 1
    30   11   32 1
    31   12   13 1
    32   12   18 1
    33   12   33 1
    34   12   34 1
    35   13   23 1
    36   14   35 1
    37   14   36 1
    38   14   37 1
    39   15   38 1
    40   15   39 1
    41   15   40 1
    42   16   18 1
    43   16   41 1
    44   16   42 1
    45   16   43 1
    46   17   44 1
