@<TRIPOS>MOLECULE
*****
   24    24     0     0     0
SMALL
NO_CHARGES

@<TRIPOS>ATOM
      1 C1          1.8292   -1.4891    0.0657 C.ar      1 <0>         0.0000
      2 C2          1.8721   -0.8328    2.7582 C.ar      1 <0>         0.0000
      3 C3          0.8609   -0.6040    0.5699 C.ar      1 <0>         0.0000
      4 C4          2.8447   -1.7026    2.2717 C.ar      1 <0>         0.0000
      5 C5          0.8818   -0.2789    1.9342 C.ar      1 <0>         0.0000
      6 C6          2.8066   -2.0307    0.8964 C.ar      1 <0>         0.0000
      7 C7         -0.1276   -0.0614   -0.4421 C.2       1 <0>         0.0000
      8 C8          3.9095   -2.2927    3.1579 C.3       1 <0>         0.0000
      9 C9          3.7945   -3.2585   -0.9055 C.3       1 <0>         0.0000
     10 N1         -0.1189    0.6275    2.4766 N.pl3     1 <0>         0.0000
     11 O1         -0.1148   -0.4317   -1.6026 O.2       1 <0>         0.0000
     12 O2         -1.0100    0.8536   -0.0103 O.3       1 <0>         0.0000
     13 O3          3.7810   -2.8925    0.4744 O.3       1 <0>         0.0000
     14 H1          1.7769   -1.7182   -0.9914 H         1 <0>         0.0000
     15 H2          1.8782   -0.5752    3.8158 H         1 <0>         0.0000
     16 H3          3.8609   -3.3866    3.1520 H         1 <0>         0.0000
     17 H4          4.9088   -2.0229    2.8003 H         1 <0>         0.0000
     18 H5          3.8012   -1.9436    4.1879 H         1 <0>         0.0000
     19 H6          4.6367   -3.9412   -1.0231 H         1 <0>         0.0000
     20 H7          3.9408   -2.3818   -1.5470 H         1 <0>         0.0000
     21 H8          2.8667   -3.7682   -1.1899 H         1 <0>         0.0000
     22 H9          0.3186    1.3550    3.0399 H         1 <0>         0.0000
     23 H10        -0.7683    0.1272    3.0832 H         1 <0>         0.0000
     24 H11        -0.8519    1.0043    0.9670 H         1 <0>         0.0000
@<TRIPOS>BOND
     1    1    3 ar
     2    1    6 ar
     3    1   14 1
     4    2    4 ar
     5    2    5 ar
     6    2   15 1
     7    3    5 ar
     8    3    7 1
     9    4    6 ar
    10    4    8 1
    11    5   10 1
    12    6   13 1
    13    7   11 2
    14    7   12 1
    15    8   16 1
    16    8   17 1
    17    8   18 1
    18    9   13 1
    19    9   19 1
    20    9   20 1
    21    9   21 1
    22   10   22 1
    23   10   23 1
    24   12   24 1
