@<TRIPOS>MOLECULE
*****
   16    16     0     0     0
SMALL
NO_CHARGES

@<TRIPOS>ATOM
      1 C1          1.7953   -1.2069   -0.0749 C.ar      1 <0>         0.0000
      2 C2          0.7488   -0.5554    0.5650 C.ar      1 <0>         0.0000
      3 C3          1.8400   -0.9957    2.7012 C.ar      1 <0>         0.0000
      4 C4          2.8720   -1.7599    0.6419 C.ar      1 <0>         0.0000
      5 C5          2.9020   -1.6565    2.0551 C.ar      1 <0>         0.0000
      6 C6          0.7922   -0.4613    1.9596 C.ar      1 <0>         0.0000
      7 C7          3.9631   -2.4442   -0.0823 C.2       1 <0>         0.0000
      8 O1          4.9383   -2.9553    0.4450 O.2       1 <0>         0.0000
      9 O2          3.7924   -2.4634   -1.4337 O.3       1 <0>         0.0000
     10 S1          4.2365   -2.3364    3.0095 S.3       1 <0>         0.0000
     11 Br1        -0.6303    0.4285    2.8805 Br        1 <0>         0.0000
     12 H1          1.7918   -1.2970   -1.1553 H         1 <0>         0.0000
     13 H2         -0.0766   -0.1324    0.0034 H         1 <0>         0.0000
     14 H3          1.8299   -0.8981    3.7816 H         1 <0>         0.0000
     15 H4          4.5681   -2.9366   -1.7901 H         1 <0>         0.0000
     16 H5          3.7136   -1.9366    4.1919 H         1 <0>         0.0000
@<TRIPOS>BOND
     1    1    2 ar
     2    1    4 ar
     3    1   12 1
     4    2    6 ar
     5    2   13 1
     6    3    5 ar
     7    3    6 ar
     8    3   14 1
     9    4    5 ar
    10    4    7 1
    11    5   10 1
    12    6   11 1
    13    7    8 2
    14    7    9 1
    15    9   15 1
    16   10   16 1
