@<TRIPOS>MOLECULE
*****
   50    52     0     0     0
SMALL
NO_CHARGES

@<TRIPOS>ATOM
      1 C1          1.4736    7.0819   -0.8801 C.ar      1 <0>         0.0000
      2 C2         -0.5051    6.2989    0.2337 C.ar      1 <0>         0.0000
      3 C3          2.0018    7.5236    0.3350 C.ar      1 <0>         0.0000
      4 C4          0.0030    6.7351    1.4591 C.ar      1 <0>         0.0000
      5 C5          0.2180    6.4604   -0.9591 C.ar      1 <0>         0.0000
      6 C6          1.2575    7.3449    1.5012 C.ar      1 <0>         0.0000
      7 C7         -2.8317    1.7157   -8.0702 C.3       1 <0>         0.0000
      8 C8         -1.1389    2.8120   -6.5833 C.3       1 <0>         0.0000
      9 C9         -2.9947    1.6613   -5.5661 C.3       1 <0>         0.0000
     10 C10        -1.7818    6.1563   -2.5975 C.3       1 <0>         0.0000
     11 C11        -0.2780    5.9619   -2.2966 C.3       1 <0>         0.0000
     12 C12        -1.8363    2.8761   -7.9460 C.3       1 <0>         0.0000
     13 C13        -3.7918    1.6604   -6.8749 C.3       1 <0>         0.0000
     14 C14        -0.0749    4.4488   -2.5979 C.3       1 <0>         0.0000
     15 C15        -1.0144    4.3123   -3.8102 C.3       1 <0>         0.0000
     16 C16        -0.8154    2.8780   -9.0878 C.3       1 <0>         0.0000
     17 C17        -4.7266    0.4494   -6.9494 C.3       1 <0>         0.0000
     18 C18        -0.4315    3.5186   -1.4342 C.3       1 <0>         0.0000
     19 C19        -1.4389    2.8963   -4.1788 C.3       1 <0>         0.0000
     20 N1         -2.0997    2.8159   -5.4802 N.3       1 <0>         0.0000
     21 O1         -2.1775    5.0822   -3.4599 O.3       1 <0>         0.0000
     22 Cl1         1.9041    7.8976    3.0394 Cl        1 <0>         0.0000
     23 H1          2.0554    7.2260   -1.7880 H         1 <0>         0.0000
     24 H2         -1.4798    5.8216    0.2223 H         1 <0>         0.0000
     25 H3          2.9746    8.0035    0.3762 H         1 <0>         0.0000
     26 H4         -0.5686    6.6029    2.3725 H         1 <0>         0.0000
     27 H5         -3.3979    1.8008   -9.0064 H         1 <0>         0.0000
     28 H6         -2.2731    0.7689   -8.1264 H         1 <0>         0.0000
     29 H7         -0.4979    1.9048   -6.5458 H         1 <0>         0.0000
     30 H8         -0.4719    3.6737   -6.4781 H         1 <0>         0.0000
     31 H9         -3.6863    1.7009   -4.7177 H         1 <0>         0.0000
     32 H10        -2.4330    0.7061   -5.4855 H         1 <0>         0.0000
     33 H11        -2.4022    6.1144   -1.6965 H         1 <0>         0.0000
     34 H12        -1.9666    7.1192   -3.0889 H         1 <0>         0.0000
     35 H13         0.2820    6.5009   -3.0687 H         1 <0>         0.0000
     36 H14        -2.4015    3.8169   -7.9745 H         1 <0>         0.0000
     37 H15        -4.3973    2.5762   -6.8808 H         1 <0>         0.0000
     38 H16         0.9632    4.2660   -2.8975 H         1 <0>         0.0000
     39 H17        -0.5281    4.7835   -4.6782 H         1 <0>         0.0000
     40 H18        -0.2161    1.9594   -9.0830 H         1 <0>         0.0000
     41 H19        -0.1267    3.7272   -9.0088 H         1 <0>         0.0000
     42 H20        -1.3148    2.9427  -10.0608 H         1 <0>         0.0000
     43 H21        -4.1590   -0.4889   -6.9311 H         1 <0>         0.0000
     44 H22        -5.3142    0.4635   -7.8740 H         1 <0>         0.0000
     45 H23        -5.4284    0.4325   -6.1076 H         1 <0>         0.0000
     46 H24        -1.4787    3.6279   -1.1348 H         1 <0>         0.0000
     47 H25         0.1928    3.7275   -0.5615 H         1 <0>         0.0000
     48 H26        -0.2731    2.4722   -1.7114 H         1 <0>         0.0000
     49 H27        -2.1388    2.5516   -3.4133 H         1 <0>         0.0000
     50 H28        -0.5542    2.2312   -4.1332 H         1 <0>         0.0000
@<TRIPOS>BOND
     1    1    3 ar
     2    1    5 ar
     3    1   23 1
     4    2    4 ar
     5    2    5 ar
     6    2   24 1
     7    3    6 ar
     8    3   25 1
     9    4    6 ar
    10    4   26 1
    11    5   11 1
    12    6   22 1
    13    7   12 1
    14    7   13 1
    15    7   27 1
    16    7   28 1
    17    8   12 1
    18    8   20 1
    19    8   29 1
    20    8   30 1
    21    9   13 1
    22    9   20 1
    23    9   31 1
    24    9   32 1
    25   10   11 1
    26   10   21 1
    27   10   33 1
    28   10   34 1
    29   11   14 1
    30   11   35 1
    31   12   16 1
    32   12   36 1
    33   13   17 1
    34   13   37 1
    35   14   15 1
    36   14   18 1
    37   14   38 1
    38   15   19 1
    39   15   21 1
    40   15   39 1
    41   16   40 1
    42   16   41 1
    43   16   42 1
    44   17   43 1
    45   17   44 1
    46   17   45 1
    47   18   46 1
    48   18   47 1
    49   18   48 1
    50   19   20 1
    51   19   49 1
    52   19   50 1
