@<TRIPOS>MOLECULE
*****
   32    33     0     0     0
SMALL
NO_CHARGES

@<TRIPOS>ATOM
      1 C1         -1.1854   -0.7848    3.4096 C.2       1 <0>         0.0000
      2 C2          2.1222    0.9211   -1.7508 C.3       1 <0>         0.0000
      3 C3          1.3334   -0.3142   -1.2978 C.3       1 <0>         0.0000
      4 C4          0.1511    0.4809    0.8868 C.3       1 <0>         0.0000
      5 C5         -1.1275   -0.5786   -0.4176 C.3       1 <0>         0.0000
      6 C6          0.9919    1.8525   -2.2055 C.3       1 <0>         0.0000
      7 C7          0.1019    0.3234   -0.6560 C.3       1 <0>         0.0000
      8 C8         -1.6181   -1.0959    5.7948 C.3       1 <0>         0.0000
      9 C9         -3.5035   -1.2811    4.2065 C.3       1 <0>         0.0000
     10 C10        -1.7487   -0.7551    1.9837 C.3       1 <0>         0.0000
     11 N1         -0.7000   -0.7304    0.9937 N.3       1 <0>         0.0000
     12 N2         -2.0981   -0.9665    4.4235 N.am      1 <0>         0.0000
     13 O1          0.0141   -0.6175    3.6266 O.2       1 <0>         0.0000
     14 O2         -0.1547    1.5150   -1.3998 O.3       1 <0>         0.0000
     15 H1          2.6630    1.3580   -0.9043 H         1 <0>         0.0000
     16 H2          2.8429    0.7132   -2.5464 H         1 <0>         0.0000
     17 H3          1.0320   -0.9136   -2.1654 H         1 <0>         0.0000
     18 H4          1.8736   -0.9614   -0.6036 H         1 <0>         0.0000
     19 H5          1.1116    0.4078    1.4021 H         1 <0>         0.0000
     20 H6         -0.3682    1.4016    1.1943 H         1 <0>         0.0000
     21 H7         -2.0556    0.0035   -0.5372 H         1 <0>         0.0000
     22 H8         -1.2017   -1.5152   -0.9832 H         1 <0>         0.0000
     23 H9          1.2184    2.9136   -2.0607 H         1 <0>         0.0000
     24 H10         0.7418    1.6904   -3.2628 H         1 <0>         0.0000
     25 H11        -2.1677   -0.4130    6.4531 H         1 <0>         0.0000
     26 H12        -0.5578   -0.8502    5.8191 H         1 <0>         0.0000
     27 H13        -1.7574   -2.1217    6.1613 H         1 <0>         0.0000
     28 H14        -3.6796   -2.3647    4.1429 H         1 <0>         0.0000
     29 H15        -3.8833   -0.8106    3.2996 H         1 <0>         0.0000
     30 H16        -4.0881   -0.8926    5.0461 H         1 <0>         0.0000
     31 H17        -2.3654   -1.6447    1.8079 H         1 <0>         0.0000
     32 H18        -2.4251    0.1214    1.8988 H         1 <0>         0.0000
@<TRIPOS>BOND
     1    1   10 1
     2    1   12 am
     3    1   13 2
     4    2    3 1
     5    2    6 1
     6    2   15 1
     7    2   16 1
     8    3    7 1
     9    3   17 1
    10    3   18 1
    11    4    7 1
    12    4   11 1
    13    4   19 1
    14    4   20 1
    15    5    7 1
    16    5   11 1
    17    5   21 1
    18    5   22 1
    19    6   14 1
    20    6   23 1
    21    6   24 1
    22    7   14 1
    23    8   12 1
    24    8   25 1
    25    8   26 1
    26    8   27 1
    27    9   12 1
    28    9   28 1
    29    9   29 1
    30    9   30 1
    31   10   11 1
    32   10   31 1
    33   10   32 1
