@<TRIPOS>MOLECULE
*****
   17    17     0     0     0
SMALL
NO_CHARGES

@<TRIPOS>ATOM
      1 C1          5.8250    1.2060    0.5890 C.ar      1 <0>         0.0000
      2 C2          4.6400    1.5160    1.2380 C.ar      1 <0>         0.0000
      3 C3          5.8340    0.1490   -0.3080 C.ar      1 <0>         0.0000
      4 C4          3.6250   -0.1920    0.1250 C.ar      1 <0>         0.0000
      5 C5          1.2750   -0.9460    0.2820 C.2       1 <0>         0.0000
      6 C6          0.3440   -1.9760   -0.2970 C.3       1 <0>         0.0000
      7 N1          3.5510    0.8120    0.9970 N.ar      1 <0>         0.0000
      8 N2          4.7290   -0.5430   -0.5330 N.ar      1 <0>         0.0000
      9 N3          2.5520   -0.9820   -0.1940 N.am      1 <0>         0.0000
     10 O1          0.9050   -0.1490    1.1100 O.2       1 <0>         0.0000
     11 H1          6.7040    1.7650    0.7750 H         1 <0>         0.0000
     12 H2          4.5870    2.3170    1.9320 H         1 <0>         0.0000
     13 H3          6.7220   -0.1190   -0.8250 H         1 <0>         0.0000
     14 H4         -0.6200   -1.8300    0.1700 H         1 <0>         0.0000
     15 H5          0.7590   -2.9460   -0.0640 H         1 <0>         0.0000
     16 H6          0.3030   -1.8050   -1.3620 H         1 <0>         0.0000
     17 H7          2.7770   -1.6940   -0.8880 H         1 <0>         0.0000
@<TRIPOS>BOND
     1    1    2 ar
     2    1    3 ar
     3    1   11 1
     4    2    7 ar
     5    2   12 1
     6    3    8 ar
     7    3   13 1
     8    4    7 ar
     9    4    8 ar
    10    4    9 1
    11    5    6 1
    12    5    9 am
    13    5   10 2
    14    6   14 1
    15    6   15 1
    16    6   16 1
    17    9   17 1
