@<TRIPOS>MOLECULE
*****
   17    17     0     0     0
SMALL
NO_CHARGES

@<TRIPOS>ATOM
      1 C1          4.6240    1.4020    1.1950 C.2       1 <0>         0.0000
      2 C2          3.3660    0.9000    0.8650 C.2       1 <0>         0.0000
      3 C3          5.5110    0.9640    0.2540 C.2       1 <0>         0.0000
      4 C4          3.4930    0.1540   -0.2840 C.2       1 <0>         0.0000
      5 C5          2.5540   -0.5940   -1.0870 C.2       1 <0>         0.0000
      6 C6          0.1840   -1.2400   -1.4870 C.3       1 <0>         0.0000
      7 N1          4.8190    0.2060   -0.6420 N.pl3     1 <0>         0.0000
      8 N2          1.2470   -0.6060   -0.7000 N.am      1 <0>         0.0000
      9 O1          2.8720   -1.2140   -2.0960 O.2       1 <0>         0.0000
     10 H1          4.8580    2.0160    2.0280 H         1 <0>         0.0000
     11 H2          2.4710    1.0650    1.4080 H         1 <0>         0.0000
     12 H3          6.5540    1.1300    0.1590 H         1 <0>         0.0000
     13 H4         -0.0620   -0.5860   -2.3260 H         1 <0>         0.0000
     14 H5         -0.6860   -1.3860   -0.8470 H         1 <0>         0.0000
     15 H6          0.5440   -2.2030   -1.8560 H         1 <0>         0.0000
     16 H7          5.2130   -0.2700   -1.4740 H         1 <0>         0.0000
     17 H8          0.9990   -0.0020    0.0920 H         1 <0>         0.0000
@<TRIPOS>BOND
     1    1    2 1
     2    1    3 2
     3    1   10 1
     4    2    4 2
     5    2   11 1
     6    3    7 1
     7    3   12 1
     8    4    5 1
     9    4    7 1
    10    5    8 am
    11    5    9 2
    12    6    8 1
    13    6   13 1
    14    6   14 1
    15    6   15 1
    16    7   16 1
    17    8   17 1
