@<TRIPOS>MOLECULE
*****
   33    35     0     0     0
SMALL
NO_CHARGES

@<TRIPOS>ATOM
      1 C1         -6.4047   -1.0075   -5.6440 C.ar      1 <0>         0.0000
      2 C2         -5.1059   -0.8575   -5.1612 C.ar      1 <0>         0.0000
      3 C3         -7.1426   -2.1111   -5.2097 C.ar      1 <0>         0.0000
      4 C4         -4.5824   -1.8013   -4.2705 C.ar      1 <0>         0.0000
      5 C5         -5.4067   -2.8831   -3.8965 C.ar      1 <0>         0.0000
      6 C6         -2.7175    1.3125   -1.5144 C.3       1 <0>         0.0000
      7 C7         -3.0527   -0.0669   -0.9638 C.3       1 <0>         0.0000
      8 C8         -5.1939   -5.3717   -3.2608 C.3       1 <0>         0.0000
      9 C9         -3.7817   -4.8221   -3.2891 C.3       1 <0>         0.0000
     10 C10        -3.4586    0.3310   -2.3748 C.3       1 <0>         0.0000
     11 C11        -4.9469   -3.9269   -2.9103 C.3       1 <0>         0.0000
     12 C12        -5.1143   -3.5116   -1.4548 C.3       1 <0>         0.0000
     13 C13        -3.1564   -1.6407   -3.7681 C.3       1 <0>         0.0000
     14 N1         -6.6623   -3.0251   -4.3595 N.ar      1 <0>         0.0000
     15 N2         -2.8200   -0.2280   -3.5455 N.3       1 <0>         0.0000
     16 H1         -6.8382   -0.2905   -6.3361 H         1 <0>         0.0000
     17 H2         -4.4889   -0.0109   -5.4493 H         1 <0>         0.0000
     18 H3         -8.1634   -2.2683   -5.5566 H         1 <0>         0.0000
     19 H4         -3.2556    2.1734   -1.1287 H         1 <0>         0.0000
     20 H5         -1.6771    1.5142   -1.7588 H         1 <0>         0.0000
     21 H6         -2.2314   -0.7716   -0.8583 H         1 <0>         0.0000
     22 H7         -3.8189   -0.1470   -0.1974 H         1 <0>         0.0000
     23 H8         -5.6831   -5.5788   -4.2069 H         1 <0>         0.0000
     24 H9         -5.4661   -6.0460   -2.4534 H         1 <0>         0.0000
     25 H10        -3.0909   -5.1178   -2.5032 H         1 <0>         0.0000
     26 H11        -3.3193   -4.6763   -4.2618 H         1 <0>         0.0000
     27 H12        -4.5179    0.5232   -2.5268 H         1 <0>         0.0000
     28 H13        -4.7618   -4.3006   -0.7815 H         1 <0>         0.0000
     29 H14        -6.1714   -3.3251   -1.2364 H         1 <0>         0.0000
     30 H15        -4.5559   -2.5970   -1.2279 H         1 <0>         0.0000
     31 H16        -3.0052   -2.2497   -2.8695 H         1 <0>         0.0000
     32 H17        -2.4697   -2.0269   -4.5323 H         1 <0>         0.0000
     33 H18        -1.8110   -0.1266   -3.4723 H         1 <0>         0.0000
@<TRIPOS>BOND
     1    1    2 ar
     2    1    3 ar
     3    1   16 1
     4    2    4 ar
     5    2   17 1
     6    3   14 ar
     7    3   18 1
     8    4    5 ar
     9    4   13 1
    10    5   11 1
    11    5   14 ar
    12    6    7 1
    13    6   10 1
    14    6   19 1
    15    6   20 1
    16    7   10 1
    17    7   21 1
    18    7   22 1
    19    8    9 1
    20    8   11 1
    21    8   23 1
    22    8   24 1
    23    9   11 1
    24    9   25 1
    25    9   26 1
    26   10   15 1
    27   10   27 1
    28   11   12 1
    29   12   28 1
    30   12   29 1
    31   12   30 1
    32   13   15 1
    33   13   31 1
    34   13   32 1
    35   15   33 1
