@<TRIPOS>MOLECULE
*****
   34    36     0     0     0
SMALL
NO_CHARGES

@<TRIPOS>ATOM
      1 C1         -3.5603   -2.7224    0.2733 C.ar      1 <0>         0.0000
      2 C2         -3.5659   -1.8419   -0.8053 C.ar      1 <0>         0.0000
      3 C3         -2.3775   -2.8399    1.0051 C.ar      1 <0>         0.0000
      4 C4         -2.4191   -1.0969   -1.1017 C.ar      1 <0>         0.0000
      5 C5         -1.2740   -1.2609   -0.2832 C.ar      1 <0>         0.0000
      6 C6         -1.4234   -3.1104   -3.5875 C.3       1 <0>         0.0000
      7 C7         -0.5138   -2.5569   -4.6629 C.3       1 <0>         0.0000
      8 C8          1.2643   -1.1060    0.0845 C.3       1 <0>         0.0000
      9 C9          1.0937   -1.1437   -1.4154 C.3       1 <0>         0.0000
     10 C10        -1.6576   -1.7305   -4.1371 C.3       1 <0>         0.0000
     11 C11         0.0204   -0.4989   -0.4998 C.3       1 <0>         0.0000
     12 C12        -0.0470    1.0259   -0.4658 C.3       1 <0>         0.0000
     13 C13        -2.4521   -0.1795   -2.2948 C.3       1 <0>         0.0000
     14 N1         -1.2732   -2.1350    0.7327 N.ar      1 <0>         0.0000
     15 N2         -1.3581   -0.5411   -3.2945 N.4       1 <0>         0.0000
     16 H1         -4.4368   -3.3074    0.5330 H         1 <0>         0.0000
     17 H2         -4.4578   -1.7352   -1.4185 H         1 <0>         0.0000
     18 H3         -2.3099   -3.5262    1.8468 H         1 <0>         0.0000
     19 H4         -2.1523   -3.8683   -3.8536 H         1 <0>         0.0000
     20 H5         -1.0269   -3.2059   -2.5831 H         1 <0>         0.0000
     21 H6          0.4957   -2.2795   -4.3728 H         1 <0>         0.0000
     22 H7         -0.6023   -2.9290   -5.6780 H         1 <0>         0.0000
     23 H8          1.1535   -2.0395    0.6214 H         1 <0>         0.0000
     24 H9          2.0047   -0.4242    0.4891 H         1 <0>         0.0000
     25 H10         1.7209   -0.4889   -2.0180 H         1 <0>         0.0000
     26 H11         0.9080   -2.1272   -1.8413 H         1 <0>         0.0000
     27 H12        -2.5202   -1.5445   -4.7684 H         1 <0>         0.0000
     28 H13         0.9621    1.4442   -0.4305 H         1 <0>         0.0000
     29 H14        -0.5766    1.3607    0.4309 H         1 <0>         0.0000
     30 H15        -0.5393    1.4799   -1.3322 H         1 <0>         0.0000
     31 H16        -3.3996   -0.2579   -2.8295 H         1 <0>         0.0000
     32 H17        -2.2960    0.8669   -2.0322 H         1 <0>         0.0000
     33 H18        -0.4875   -0.6917   -2.7510 H         1 <0>         0.0000
     34 H19        -1.1774    0.2591   -3.9117 H         1 <0>         0.0000
@<TRIPOS>BOND
     1    1    2 ar
     2    1    3 ar
     3    1   16 1
     4    2    4 ar
     5    2   17 1
     6    3   14 ar
     7    3   18 1
     8    4    5 ar
     9    4   13 1
    10    5   11 1
    11    5   14 ar
    12    6    7 1
    13    6   10 1
    14    6   19 1
    15    6   20 1
    16    7   10 1
    17    7   21 1
    18    7   22 1
    19    8    9 1
    20    8   11 1
    21    8   23 1
    22    8   24 1
    23    9   11 1
    24    9   25 1
    25    9   26 1
    26   10   15 1
    27   10   27 1
    28   11   12 1
    29   12   28 1
    30   12   29 1
    31   12   30 1
    32   13   15 1
    33   13   31 1
    34   13   32 1
    35   15   33 1
    36   15   34 1
