@<TRIPOS>MOLECULE
*****
   34    36     0     0     0
SMALL
NO_CHARGES

@<TRIPOS>ATOM
      1 C1         -3.8566   -2.6665   -0.4180 C.ar      1 <0>         0.0000
      2 C2         -3.3339   -1.9120   -1.4639 C.ar      1 <0>         0.0000
      3 C3         -3.1970   -2.6048    0.8146 C.ar      1 <0>         0.0000
      4 C4         -2.1892   -1.1322   -1.2518 C.ar      1 <0>         0.0000
      5 C5         -1.5504   -1.1925    0.0070 C.ar      1 <0>         0.0000
      6 C6         -3.8572    1.6781   -0.5303 C.3       1 <0>         0.0000
      7 C7         -4.2086    2.6556   -1.6314 C.3       1 <0>         0.0000
      8 C8         -0.1660    0.9701    0.5000 C.3       1 <0>         0.0000
      9 C9          0.0542   -0.0038    1.6356 C.3       1 <0>         0.0000
     10 C10        -2.9039    1.9040   -1.6689 C.3       1 <0>         0.0000
     11 C11        -0.2178   -0.5361    0.2552 C.3       1 <0>         0.0000
     12 C12         0.9445   -1.2042   -0.4731 C.3       1 <0>         0.0000
     13 C13        -1.6911   -0.2456   -2.3587 C.3       1 <0>         0.0000
     14 N1         -2.0734   -1.9084    1.0145 N.ar      1 <0>         0.0000
     15 N2         -2.7301    0.8368   -2.6948 N.4       1 <0>         0.0000
     16 H1         -4.7386   -3.2857   -0.5474 H         1 <0>         0.0000
     17 H2         -3.8138   -1.9453   -2.4430 H         1 <0>         0.0000
     18 H3         -3.5797   -3.1525    1.6737 H         1 <0>         0.0000
     19 H4         -3.5589    2.0619    0.4394 H         1 <0>         0.0000
     20 H5         -4.3988    0.7385   -0.4898 H         1 <0>         0.0000
     21 H6         -4.9932    2.3710   -2.3280 H         1 <0>         0.0000
     22 H7         -4.1538    3.7209   -1.4341 H         1 <0>         0.0000
     23 H8         -1.0998    1.5234    0.5121 H         1 <0>         0.0000
     24 H9          0.6865    1.5215    0.1107 H         1 <0>         0.0000
     25 H10         1.0614   -0.1173    2.0237 H         1 <0>         0.0000
     26 H11        -0.7314   -0.1085    2.3754 H         1 <0>         0.0000
     27 H12        -1.9691    2.4270   -1.5031 H         1 <0>         0.0000
     28 H13         1.8826   -0.6867   -0.2528 H         1 <0>         0.0000
     29 H14         0.8193   -1.2132   -1.5623 H         1 <0>         0.0000
     30 H15         1.0481   -2.2431   -0.1450 H         1 <0>         0.0000
     31 H16        -0.7812    0.2877   -2.0934 H         1 <0>         0.0000
     32 H17        -1.5311   -0.7917   -3.2930 H         1 <0>         0.0000
     33 H18        -3.6338    0.3764   -2.8535 H         1 <0>         0.0000
     34 H19        -2.4757    1.2789   -3.5870 H         1 <0>         0.0000
@<TRIPOS>BOND
     1    1    2 ar
     2    1    3 ar
     3    1   16 1
     4    2    4 ar
     5    2   17 1
     6    3   14 ar
     7    3   18 1
     8    4    5 ar
     9    4   13 1
    10    5   11 1
    11    5   14 ar
    12    6    7 1
    13    6   10 1
    14    6   19 1
    15    6   20 1
    16    7   10 1
    17    7   21 1
    18    7   22 1
    19    8    9 1
    20    8   11 1
    21    8   23 1
    22    8   24 1
    23    9   11 1
    24    9   25 1
    25    9   26 1
    26   10   15 1
    27   10   27 1
    28   11   12 1
    29   12   28 1
    30   12   29 1
    31   12   30 1
    32   13   15 1
    33   13   31 1
    34   13   32 1
    35   15   33 1
    36   15   34 1
