@<TRIPOS>MOLECULE
*****
   39    39     0     0     0
SMALL
NO_CHARGES

@<TRIPOS>ATOM
      1 C1         -0.9457    0.7526    4.6400 C.3       1 <0>         0.0000
      2 C2         -0.5918    0.0924    3.2876 C.3       1 <0>         0.0000
      3 C3         -1.0256   -0.4099    5.6613 C.3       1 <0>         0.0000
      4 C4          0.0608   -1.2393    3.6653 C.3       1 <0>         0.0000
      5 C5          0.1527   -2.3133    2.5629 C.3       1 <0>         0.0000
      6 C6          1.5269   -2.9946    2.3905 C.3       1 <0>         0.0000
      7 C7          3.2178   -4.7038    7.3194 C.3       1 <0>         0.0000
      8 C8          4.0834   -5.7851    7.9798 C.3       1 <0>         0.0000
      9 C9          1.8734   -4.1754    3.3085 C.3       1 <0>         0.0000
     10 C10         3.0816   -4.9783    5.8198 C.3       1 <0>         0.0000
     11 C11         4.2373   -5.5492    9.4711 C.3       1 <0>         0.0000
     12 N1         -0.8049   -1.6618    4.8407 N.4       1 <0>         0.0000
     13 O1          0.7187   -3.7416    5.6830 O.2       1 <0>         0.0000
     14 O2          2.7835   -2.3922    5.0986 O.2       1 <0>         0.0000
     15 F1          5.0001   -6.5065   10.0378 F         1 <0>         0.0000
     16 F2          4.8203   -4.3521    9.7284 F         1 <0>         0.0000
     17 F3          3.0360   -5.5535   10.1023 F         1 <0>         0.0000
     18 S1          2.0742   -3.6836    5.0506 S.o2      1 <0>         0.0000
     19 H1         -0.1711    1.4576    4.9467 H         1 <0>         0.0000
     20 H2         -1.8863    1.3027    4.5856 H         1 <0>         0.0000
     21 H3         -1.4918   -0.0919    2.6892 H         1 <0>         0.0000
     22 H4          0.0828    0.7028    2.6844 H         1 <0>         0.0000
     23 H5         -0.2251   -0.3745    6.4006 H         1 <0>         0.0000
     24 H6         -1.9800   -0.4943    6.1809 H         1 <0>         0.0000
     25 H7          1.0442   -1.0543    4.1058 H         1 <0>         0.0000
     26 H8         -0.6281   -3.0719    2.7005 H         1 <0>         0.0000
     27 H9         -0.0810   -1.8219    1.6143 H         1 <0>         0.0000
     28 H10         2.3239   -2.2479    2.4540 H         1 <0>         0.0000
     29 H11         1.5690   -3.4020    1.3753 H         1 <0>         0.0000
     30 H12         2.2267   -4.6907    7.7792 H         1 <0>         0.0000
     31 H13         3.6741   -3.7223    7.4714 H         1 <0>         0.0000
     32 H14         3.6437   -6.7789    7.8551 H         1 <0>         0.0000
     33 H15         5.0897   -5.8058    7.5520 H         1 <0>         0.0000
     34 H16         1.1102   -4.9581    3.3028 H         1 <0>         0.0000
     35 H17         2.8311   -4.6074    3.0027 H         1 <0>         0.0000
     36 H18         4.0459   -4.9535    5.3037 H         1 <0>         0.0000
     37 H19         2.5754   -5.9262    5.6132 H         1 <0>         0.0000
     38 H20        -0.3427   -2.4414    5.3647 H         1 <0>         0.0000
     39 H21        -1.6996   -2.0156    4.4888 H         1 <0>         0.0000
@<TRIPOS>BOND
     1    1    2 1
     2    1    3 1
     3    1   19 1
     4    1   20 1
     5    2    4 1
     6    2   21 1
     7    2   22 1
     8    3   12 1
     9    3   23 1
    10    3   24 1
    11    4    5 1
    12    4   12 1
    13    4   25 1
    14    5    6 1
    15    5   26 1
    16    5   27 1
    17    6    9 1
    18    6   28 1
    19    6   29 1
    20    7    8 1
    21    7   10 1
    22    7   30 1
    23    7   31 1
    24    8   11 1
    25    8   32 1
    26    8   33 1
    27    9   18 1
    28    9   34 1
    29    9   35 1
    30   10   18 1
    31   10   36 1
    32   10   37 1
    33   11   15 1
    34   11   16 1
    35   11   17 1
    36   12   38 1
    37   12   39 1
    38   13   18 2
    39   14   18 2
