@<TRIPOS>MOLECULE
*****
   30    32     0     0     0
SMALL
NO_CHARGES

@<TRIPOS>ATOM
      1 C1         -0.7206    2.2039    0.1907 C.2       1 <0>         0.0000
      2 C2         -2.0806    2.1431    0.2708 C.2       1 <0>         0.0000
      3 C3         -0.2619    0.8394    0.2965 C.2       1 <0>         0.0000
      4 C4         -1.3800    0.0612    0.4244 C.2       1 <0>         0.0000
      5 C5          2.3586    1.2864   -1.6223 C.cat     1 <0>         0.0000
      6 C6         -1.4597   -1.4169    0.5868 C.3       1 <0>         0.0000
      7 C7         -0.0981   -2.0216    0.1923 C.3       1 <0>         0.0000
      8 C8          1.0777   -1.2179    0.7749 C.3       1 <0>         0.0000
      9 C9          3.6480    3.1861   -1.8961 C.3       1 <0>         0.0000
     10 C10         3.3642    2.5110   -3.2503 C.3       1 <0>         0.0000
     11 C11         1.1118    0.2425    0.2808 C.3       1 <0>         0.0000
     12 N1          2.7369    2.4222   -1.0245 N.pl3     1 <0>         0.0000
     13 N2          1.6960    0.2793   -1.0984 N.pl3     1 <0>         0.0000
     14 O1         -2.4947    0.8413    0.4141 O.3       1 <0>         0.0000
     15 O2          2.7367    1.2283   -2.8909 O.3       1 <0>         0.0000
     16 H1         -0.1370    3.1093    0.0827 H         1 <0>         0.0000
     17 H2         -2.8642    2.8864    0.2483 H         1 <0>         0.0000
     18 H3         -1.6989   -1.6646    1.6290 H         1 <0>         0.0000
     19 H4         -2.2644   -1.8325   -0.0274 H         1 <0>         0.0000
     20 H5         -0.0337   -3.0553    0.5415 H         1 <0>         0.0000
     21 H6         -0.0269   -2.0656   -0.9029 H         1 <0>         0.0000
     22 H7          0.9883   -1.1869    1.8657 H         1 <0>         0.0000
     23 H8          2.0327   -1.7012    0.5460 H         1 <0>         0.0000
     24 H9          4.6852    3.0646   -1.5717 H         1 <0>         0.0000
     25 H10         3.3861    4.2450   -1.8983 H         1 <0>         0.0000
     26 H11         2.6423    3.0578   -3.8584 H         1 <0>         0.0000
     27 H12         4.2557    2.2796   -3.8296 H         1 <0>         0.0000
     28 H13         1.8061    0.8040    0.9149 H         1 <0>         0.0000
     29 H14         2.6418    2.5866   -0.0304 H         1 <0>         0.0000
     30 H15         1.3883   -0.4308   -1.7579 H         1 <0>         0.0000
@<TRIPOS>BOND
     1    1    2 2
     2    1    3 1
     3    1   16 1
     4    2   14 1
     5    2   17 1
     6    3    4 2
     7    3   11 1
     8    4    6 1
     9    4   14 1
    10    5   12 2
    11    5   13 1
    12    5   15 1
    13    6    7 1
    14    6   18 1
    15    6   19 1
    16    7    8 1
    17    7   20 1
    18    7   21 1
    19    8   11 1
    20    8   22 1
    21    8   23 1
    22    9   10 1
    23    9   12 1
    24    9   24 1
    25    9   25 1
    26   10   15 1
    27   10   26 1
    28   10   27 1
    29   11   13 1
    30   11   28 1
    31   12   29 1
    32   13   30 1
