@<TRIPOS>MOLECULE
*****
   29    31     0     0     0
SMALL
NO_CHARGES

@<TRIPOS>ATOM
      1 C1         -0.6595   -1.8943    0.1314 C.2       1 <0>         0.0000
      2 C2         -1.9376   -1.4182    0.1252 C.2       1 <0>         0.0000
      3 C3          0.1899   -0.7550   -0.1118 C.2       1 <0>         0.0000
      4 C4         -0.6398    0.3190   -0.2564 C.2       1 <0>         0.0000
      5 C5          2.6072   -2.7114    0.7377 C.2       1 <0>         0.0000
      6 C6         -0.2645    1.7297   -0.5556 C.3       1 <0>         0.0000
      7 C7          1.2020    1.7341   -1.0368 C.3       1 <0>         0.0000
      8 C8          2.0982    0.8465   -0.1580 C.3       1 <0>         0.0000
      9 C9          2.9660   -4.7748    0.0549 C.3       1 <0>         0.0000
     10 C10         3.1633   -4.7144    1.5914 C.3       1 <0>         0.0000
     11 C11         1.6905   -0.6385   -0.2068 C.3       1 <0>         0.0000
     12 N1          2.4753   -3.4391   -0.3112 N.2       1 <0>         0.0000
     13 N2          2.3960   -1.3661    0.8551 N.pl3     1 <0>         0.0000
     14 O1         -1.9488   -0.0623   -0.1139 O.3       1 <0>         0.0000
     15 O2          3.0596   -3.2978    1.8973 O.3       1 <0>         0.0000
     16 H1         -0.3494   -2.9207    0.2716 H         1 <0>         0.0000
     17 H2         -2.9069   -1.8771    0.2568 H         1 <0>         0.0000
     18 H3         -0.9259    2.1538   -1.3195 H         1 <0>         0.0000
     19 H4         -0.3734    2.3577    0.3397 H         1 <0>         0.0000
     20 H5          1.2401    1.3734   -2.0719 H         1 <0>         0.0000
     21 H6          1.5868    2.7592   -1.0414 H         1 <0>         0.0000
     22 H7          3.1463    0.9370   -0.4595 H         1 <0>         0.0000
     23 H8          2.0344    1.1955    0.8820 H         1 <0>         0.0000
     24 H9          3.9058   -4.9888   -0.4700 H         1 <0>         0.0000
     25 H10         2.2446   -5.5453   -0.2358 H         1 <0>         0.0000
     26 H11         2.3764   -5.2363    2.1455 H         1 <0>         0.0000
     27 H12         4.1402   -5.0615    1.9344 H         1 <0>         0.0000
     28 H13         2.0329   -1.0865   -1.1440 H         1 <0>         0.0000
     29 H14         2.1944   -1.0655    1.8027 H         1 <0>         0.0000
@<TRIPOS>BOND
     1    1    2 2
     2    1    3 1
     3    1   16 1
     4    2   14 1
     5    2   17 1
     6    3    4 2
     7    3   11 1
     8    4    6 1
     9    4   14 1
    10    5   12 2
    11    5   13 1
    12    5   15 1
    13    6    7 1
    14    6   18 1
    15    6   19 1
    16    7    8 1
    17    7   20 1
    18    7   21 1
    19    8   11 1
    20    8   22 1
    21    8   23 1
    22    9   10 1
    23    9   12 1
    24    9   24 1
    25    9   25 1
    26   10   15 1
    27   10   26 1
    28   10   27 1
    29   11   13 1
    30   11   28 1
    31   13   29 1
