@<TRIPOS>MOLECULE
*****
   30    32     0     0     0
SMALL
NO_CHARGES

@<TRIPOS>ATOM
      1 C1         -0.5320    1.9894   -0.1604 C.2       1 <0>         0.0000
      2 C2         -1.8909    1.9654   -0.2848 C.2       1 <0>         0.0000
      3 C3         -0.1439    0.6303    0.1220 C.2       1 <0>         0.0000
      4 C4         -1.2924   -0.1076    0.1569 C.2       1 <0>         0.0000
      5 C5          2.1148    0.5867   -1.8869 C.cat     1 <0>         0.0000
      6 C6         -1.4384   -1.5608    0.4479 C.3       1 <0>         0.0000
      7 C7         -0.1211   -2.0541    1.0810 C.3       1 <0>         0.0000
      8 C8          1.1121   -1.5309    0.3242 C.3       1 <0>         0.0000
      9 C9          2.5674    0.8700   -4.1380 C.3       1 <0>         0.0000
     10 C10         1.1213    0.3972   -3.9144 C.3       1 <0>         0.0000
     11 C11         1.1951    0.0088    0.3760 C.3       1 <0>         0.0000
     12 N1          2.9514    1.1831   -2.7497 N.pl3     1 <0>         0.0000
     13 N2          2.2371    0.5306   -0.5743 N.pl3     1 <0>         0.0000
     14 O1         -2.3684    0.6927   -0.0899 O.3       1 <0>         0.0000
     15 O2          1.0818    0.0298   -2.4887 O.3       1 <0>         0.0000
     16 H1          0.0977    2.8664   -0.2430 H         1 <0>         0.0000
     17 H2         -2.6359    2.7229   -0.4812 H         1 <0>         0.0000
     18 H3         -2.2818   -1.7347    1.1235 H         1 <0>         0.0000
     19 H4         -1.6531   -2.1160   -0.4747 H         1 <0>         0.0000
     20 H5         -0.0762   -1.7267    2.1260 H         1 <0>         0.0000
     21 H6         -0.0987   -3.1472    1.0900 H         1 <0>         0.0000
     22 H7          2.0278   -1.9580    0.7448 H         1 <0>         0.0000
     23 H8          1.0516   -1.8475   -0.7221 H         1 <0>         0.0000
     24 H9          3.2108    0.0883   -4.5521 H         1 <0>         0.0000
     25 H10         2.6193    1.7604   -4.7656 H         1 <0>         0.0000
     26 H11         0.3841    1.1890   -4.0541 H         1 <0>         0.0000
     27 H12         0.8452   -0.4904   -4.4796 H         1 <0>         0.0000
     28 H13         1.5777    0.3217    1.3534 H         1 <0>         0.0000
     29 H14         3.8554    1.5585   -2.4888 H         1 <0>         0.0000
     30 H15         3.0870    0.9109   -0.1738 H         1 <0>         0.0000
@<TRIPOS>BOND
     1    1    2 2
     2    1    3 1
     3    1   16 1
     4    2   14 1
     5    2   17 1
     6    3    4 2
     7    3   11 1
     8    4    6 1
     9    4   14 1
    10    5   12 1
    11    5   13 2
    12    5   15 1
    13    6    7 1
    14    6   18 1
    15    6   19 1
    16    7    8 1
    17    7   20 1
    18    7   21 1
    19    8   11 1
    20    8   22 1
    21    8   23 1
    22    9   10 1
    23    9   12 1
    24    9   24 1
    25    9   25 1
    26   10   15 1
    27   10   26 1
    28   10   27 1
    29   11   13 1
    30   11   28 1
    31   12   29 1
    32   13   30 1
