@<TRIPOS>MOLECULE
*****
   19    20     0     0     0
SMALL
NO_CHARGES

@<TRIPOS>ATOM
      1 C1          0.5118    1.2693   -1.6177 C.2       1 <0>         0.0000
      2 C2          0.1370    1.7849   -2.9066 C.2       1 <0>         0.0000
      3 C3         -0.2699    0.3966   -0.9716 C.2       1 <0>         0.0000
      4 C4         -1.0086    1.3881   -3.4713 C.2       1 <0>         0.0000
      5 C5         -1.5530   -0.0590   -1.5887 C.2       1 <0>         0.0000
      6 C6         -4.0721    1.1184   -3.9791 C.3       1 <0>         0.0000
      7 C7         -4.4105    0.2258   -2.8218 C.3       1 <0>         0.0000
      8 C8         -3.0788    0.0940   -3.5066 C.3       1 <0>         0.0000
      9 N1         -1.8518    0.4859   -2.8445 N.am      1 <0>         0.0000
     10 O1         -2.2542   -0.8629   -0.9763 O.2       1 <0>         0.0000
     11 H1          1.4461    1.6067   -1.1835 H         1 <0>         0.0000
     12 H2          0.7955    2.4909   -3.3986 H         1 <0>         0.0000
     13 H3         -0.0006    0.0005    0.0003 H         1 <0>         0.0000
     14 H4         -1.3173    1.7598   -4.4423 H         1 <0>         0.0000
     15 H5         -4.5749    0.9364   -4.9210 H         1 <0>         0.0000
     16 H6         -3.8767    2.1628   -3.7688 H         1 <0>         0.0000
     17 H7         -4.4428    0.6723   -1.8354 H         1 <0>         0.0000
     18 H8         -5.1414   -0.5567   -2.9847 H         1 <0>         0.0000
     19 H9         -2.9410   -0.7772   -4.1381 H         1 <0>         0.0000
@<TRIPOS>BOND
     1    1    3 2
     2    1    2 1
     3    1   11 1
     4    2    4 2
     5    2   12 1
     6    3    5 1
     7    3   13 1
     8    4    9 1
     9    4   14 1
    10    5    9 am
    11    5   10 2
    12    6    7 1
    13    6    8 1
    14    6   15 1
    15    6   16 1
    16    7    8 1
    17    7   17 1
    18    7   18 1
    19    8    9 1
    20    8   19 1
