@<TRIPOS>MOLECULE
*****
   32    33     0     0     0
SMALL
NO_CHARGES

@<TRIPOS>ATOM
      1 C1         -3.2577    2.0103   -2.7502 C.ar      1 <0>         0.0000
      2 C2         -1.9673    0.2661   -3.8647 C.ar      1 <0>         0.0000
      3 C3         -4.4238    1.5409   -3.3574 C.ar      1 <0>         0.0000
      4 C4         -3.1297   -0.1987   -4.4787 C.ar      1 <0>         0.0000
      5 C5         -2.0475    1.3607   -3.0019 C.ar      1 <0>         0.0000
      6 C6         -4.3454    0.4391   -4.2134 C.ar      1 <0>         0.0000
      7 C7         -0.6574   -0.3024   -0.5892 C.2       1 <0>         0.0000
      8 C8          0.7572    1.6842    1.6390 C.3       1 <0>         0.0000
      9 C9          0.4305    0.3545    2.3303 C.3       1 <0>         0.0000
     10 C10         0.8356    1.6440    0.1060 C.3       1 <0>         0.0000
     11 C11        -0.9257   -0.2462    1.9344 C.3       1 <0>         0.0000
     12 C12        -0.4923    1.2153   -0.5537 C.3       1 <0>         0.0000
     13 N1         -0.9436   -0.8810    0.6144 N.am      1 <0>         0.0000
     14 O1         -0.5327   -0.9682   -1.6140 O.2       1 <0>         0.0000
     15 O2          0.6114    1.5728   -3.0123 O.2       1 <0>         0.0000
     16 O3         -0.7858    3.4219   -1.9396 O.2       1 <0>         0.0000
     17 S1         -0.5557    1.9929   -2.2292 S.o2      1 <0>         0.0000
     18 Cl1        -5.8069   -0.1516   -4.9797 Cl        1 <0>         0.0000
     19 H1         -3.2818    2.8868   -2.1102 H         1 <0>         0.0000
     20 H2         -1.0111   -0.2125   -4.0398 H         1 <0>         0.0000
     21 H3         -5.3763    2.0301   -3.1816 H         1 <0>         0.0000
     22 H4         -3.0954   -1.0477   -5.1536 H         1 <0>         0.0000
     23 H5          0.0071    2.4313    1.9308 H         1 <0>         0.0000
     24 H6          1.7178    2.0518    2.0167 H         1 <0>         0.0000
     25 H7          1.2149   -0.3849    2.1278 H         1 <0>         0.0000
     26 H8          0.4227    0.5214    3.4141 H         1 <0>         0.0000
     27 H9          1.0901    2.6483   -0.2442 H         1 <0>         0.0000
     28 H10         1.6312    0.9743   -0.2339 H         1 <0>         0.0000
     29 H11        -1.2077   -1.0237    2.6484 H         1 <0>         0.0000
     30 H12        -1.7087    0.5209    1.9891 H         1 <0>         0.0000
     31 H13        -1.3347    1.6832   -0.0340 H         1 <0>         0.0000
     32 H14        -0.9638   -1.8940    0.5717 H         1 <0>         0.0000
@<TRIPOS>BOND
     1    1    3 ar
     2    1    5 ar
     3    1   19 1
     4    2    4 ar
     5    2    5 ar
     6    2   20 1
     7    3    6 ar
     8    3   21 1
     9    4    6 ar
    10    4   22 1
    11    5   17 1
    12    6   18 1
    13    7   12 1
    14    7   13 am
    15    7   14 2
    16    8    9 1
    17    8   10 1
    18    8   23 1
    19    8   24 1
    20    9   11 1
    21    9   25 1
    22    9   26 1
    23   10   12 1
    24   10   27 1
    25   10   28 1
    26   11   13 1
    27   11   29 1
    28   11   30 1
    29   12   17 1
    30   12   31 1
    31   13   32 1
    32   15   17 2
    33   16   17 2
