@<TRIPOS>MOLECULE
*****
   32    33     0     0     0
SMALL
NO_CHARGES

@<TRIPOS>ATOM
      1 C1         -0.3887    3.8137   -2.5511 C.ar      1 <0>         0.0000
      2 C2         -2.5793    2.7791   -2.3208 C.ar      1 <0>         0.0000
      3 C3         -0.9672    5.0764   -2.4061 C.ar      1 <0>         0.0000
      4 C4         -3.1620    4.0380   -2.1709 C.ar      1 <0>         0.0000
      5 C5         -1.1970    2.6773   -2.4943 C.ar      1 <0>         0.0000
      6 C6         -2.3472    5.1743   -2.2093 C.ar      1 <0>         0.0000
      7 C7         -0.0203   -0.9948   -0.8816 C.2       1 <0>         0.0000
      8 C8          0.2322    1.3575    1.4024 C.3       1 <0>         0.0000
      9 C9          0.2169   -0.0046    2.1097 C.3       1 <0>         0.0000
     10 C10         0.5894    1.3395   -0.0923 C.3       1 <0>         0.0000
     11 C11        -0.7896   -1.0115    1.5314 C.3       1 <0>         0.0000
     12 C12        -0.3869    0.4927   -0.9253 C.3       1 <0>         0.0000
     13 N1         -0.3680   -1.6376    0.2769 N.am      1 <0>         0.0000
     14 O1          0.5646   -1.5590   -1.7963 O.2       1 <0>         0.0000
     15 O2         -1.4306    0.2032   -3.3846 O.2       1 <0>         0.0000
     16 O3          0.9155    1.2593   -3.1889 O.2       1 <0>         0.0000
     17 S1         -0.4476    1.0434   -2.6888 S.o2      1 <0>         0.0000
     18 Cl1        -3.0761    6.7555   -2.0198 Cl        1 <0>         0.0000
     19 H1          0.6773    3.7052   -2.7263 H         1 <0>         0.0000
     20 H2         -3.1961    1.8852   -2.3317 H         1 <0>         0.0000
     21 H3         -0.3578    5.9732   -2.4512 H         1 <0>         0.0000
     22 H4         -4.2344    4.1407   -2.0400 H         1 <0>         0.0000
     23 H5         -0.7539    1.8276    1.5190 H         1 <0>         0.0000
     24 H6          0.9453    2.0128    1.9149 H         1 <0>         0.0000
     25 H7          1.2163   -0.4559    2.0892 H         1 <0>         0.0000
     26 H8         -0.0356    0.1602    3.1641 H         1 <0>         0.0000
     27 H9          0.5717    2.3728   -0.4493 H         1 <0>         0.0000
     28 H10         1.6058    0.9690   -0.2565 H         1 <0>         0.0000
     29 H11        -0.9436   -1.8267    2.2423 H         1 <0>         0.0000
     30 H12        -1.7683   -0.5329    1.3984 H         1 <0>         0.0000
     31 H13        -1.4153    0.6428   -0.5802 H         1 <0>         0.0000
     32 H14        -0.0124   -2.5867    0.3185 H         1 <0>         0.0000
@<TRIPOS>BOND
     1    1    3 ar
     2    1    5 ar
     3    1   19 1
     4    2    4 ar
     5    2    5 ar
     6    2   20 1
     7    3    6 ar
     8    3   21 1
     9    4    6 ar
    10    4   22 1
    11    5   17 1
    12    6   18 1
    13    7   12 1
    14    7   13 am
    15    7   14 2
    16    8    9 1
    17    8   10 1
    18    8   23 1
    19    8   24 1
    20    9   11 1
    21    9   25 1
    22    9   26 1
    23   10   12 1
    24   10   27 1
    25   10   28 1
    26   11   13 1
    27   11   29 1
    28   11   30 1
    29   12   17 1
    30   12   31 1
    31   13   32 1
    32   15   17 2
    33   16   17 2
