@<TRIPOS>MOLECULE
*****
   32    33     0     0     0
SMALL
NO_CHARGES

@<TRIPOS>ATOM
      1 C1          2.3729   -1.4329   -3.4937 C.ar      1 <0>         0.0000
      2 C2          1.0116   -3.1745   -2.4651 C.ar      1 <0>         0.0000
      3 C3          2.0441   -1.9204   -4.7581 C.ar      1 <0>         0.0000
      4 C4          0.6825   -3.6646   -3.7284 C.ar      1 <0>         0.0000
      5 C5          1.8485   -2.0625   -2.3640 C.ar      1 <0>         0.0000
      6 C6          1.1992   -3.0295   -4.8610 C.ar      1 <0>         0.0000
      7 C7         -0.4067   -0.5201   -0.8870 C.2       1 <0>         0.0000
      8 C8         -0.0668    1.0400    1.5816 C.3       1 <0>         0.0000
      9 C9         -0.8617   -0.0965    2.2524 C.3       1 <0>         0.0000
     10 C10         1.2324    0.5501    0.9188 C.3       1 <0>         0.0000
     11 C11        -0.8405   -1.3983    1.4385 C.3       1 <0>         0.0000
     12 C12         1.0050   -0.0615   -0.4879 C.3       1 <0>         0.0000
     13 N1         -1.1593   -1.1962    0.0233 N.am      1 <0>         0.0000
     14 O1         -0.8134   -0.2744   -2.0232 O.2       1 <0>         0.0000
     15 O2          1.9699   -2.4689    0.2485 O.2       1 <0>         0.0000
     16 O3          3.5559   -0.7564   -0.7983 O.2       1 <0>         0.0000
     17 S1          2.2385   -1.4106   -0.7437 S.o2      1 <0>         0.0000
     18 Cl1         0.7838   -3.6419   -6.4480 Cl        1 <0>         0.0000
     19 H1          3.0396   -0.5831   -3.3853 H         1 <0>         0.0000
     20 H2          0.6320   -3.6500   -1.5667 H         1 <0>         0.0000
     21 H3          2.4394   -1.4508   -5.6528 H         1 <0>         0.0000
     22 H4          0.0349   -4.5286   -3.8356 H         1 <0>         0.0000
     23 H5         -0.6897    1.5487    0.8371 H         1 <0>         0.0000
     24 H6          0.1799    1.7953    2.3347 H         1 <0>         0.0000
     25 H7         -0.4295   -0.3181    3.2360 H         1 <0>         0.0000
     26 H8         -1.8939    0.2295    2.4236 H         1 <0>         0.0000
     27 H9          1.9324    1.3796    0.8001 H         1 <0>         0.0000
     28 H10         1.7226   -0.1714    1.5793 H         1 <0>         0.0000
     29 H11         0.1339   -1.8843    1.5056 H         1 <0>         0.0000
     30 H12        -1.5701   -2.1087    1.8352 H         1 <0>         0.0000
     31 H13         1.2671    0.6641   -1.2591 H         1 <0>         0.0000
     32 H14        -2.1014   -1.3855   -0.3001 H         1 <0>         0.0000
@<TRIPOS>BOND
     1    1    3 ar
     2    1    5 ar
     3    1   19 1
     4    2    4 ar
     5    2    5 ar
     6    2   20 1
     7    3    6 ar
     8    3   21 1
     9    4    6 ar
    10    4   22 1
    11    5   17 1
    12    6   18 1
    13    7   12 1
    14    7   13 am
    15    7   14 2
    16    8    9 1
    17    8   10 1
    18    8   23 1
    19    8   24 1
    20    9   11 1
    21    9   25 1
    22    9   26 1
    23   10   12 1
    24   10   27 1
    25   10   28 1
    26   11   13 1
    27   11   29 1
    28   11   30 1
    29   12   17 1
    30   12   31 1
    31   13   32 1
    32   15   17 2
    33   16   17 2
