@<TRIPOS>MOLECULE
*****
   37    38     0     0     0
SMALL
NO_CHARGES

@<TRIPOS>ATOM
      1 C1          7.0450   -2.4787   -1.1323 C.ar      1 <0>         0.0000
      2 C2          6.0198   -3.9008    0.5312 C.ar      1 <0>         0.0000
      3 C3          5.9645   -2.6981   -1.9893 C.ar      1 <0>         0.0000
      4 C4          4.9450   -4.1182   -0.3240 C.ar      1 <0>         0.0000
      5 C5          7.0868   -3.0732    0.1385 C.ar      1 <0>         0.0000
      6 C6          4.9012   -3.5161   -1.5923 C.ar      1 <0>         0.0000
      7 C7          8.2237   -2.8673    1.0891 C.2       1 <0>         0.0000
      8 C8          0.1408   -1.1129   -2.1151 C.3       1 <0>         0.0000
      9 C9         -0.0600   -2.6322   -2.1963 C.3       1 <0>         0.0000
     10 C10         1.3965   -0.7620   -1.3059 C.3       1 <0>         0.0000
     11 C11         1.1891   -3.3276   -2.7575 C.3       1 <0>         0.0000
     12 C12         2.6457   -1.4649   -1.8569 C.3       1 <0>         0.0000
     13 C13         2.4465   -2.9863   -1.9390 C.3       1 <0>         0.0000
     14 C14         9.3791   -1.9768    0.6634 C.3       1 <0>         0.0000
     15 C15         3.6927   -3.7320   -2.4778 C.3       1 <0>         0.0000
     16 O1          8.2276   -3.4045    2.1924 O.2       1 <0>         0.0000
     17 O2          4.0353   -3.3284   -3.8084 O.3       1 <0>         0.0000
     18 H1          7.8565   -1.8389   -1.4659 H         1 <0>         0.0000
     19 H2          6.0603   -4.3656    1.5114 H         1 <0>         0.0000
     20 H3          5.9389   -2.2407   -2.9719 H         1 <0>         0.0000
     21 H4          4.1311   -4.7675   -0.0073 H         1 <0>         0.0000
     22 H5         -0.7428   -0.6375   -1.6732 H         1 <0>         0.0000
     23 H6          0.2405   -0.7079   -3.1319 H         1 <0>         0.0000
     24 H7         -0.2698   -3.0258   -1.1924 H         1 <0>         0.0000
     25 H8         -0.9321   -2.8711   -2.8161 H         1 <0>         0.0000
     26 H9          1.5524    0.3231   -1.2997 H         1 <0>         0.0000
     27 H10         1.2464   -1.0616   -0.2594 H         1 <0>         0.0000
     28 H11         1.0400   -4.4151   -2.7830 H         1 <0>         0.0000
     29 H12         1.3221   -2.9977   -3.7989 H         1 <0>         0.0000
     30 H13         2.8756   -1.0815   -2.8590 H         1 <0>         0.0000
     31 H14         3.5116   -1.2352   -1.2276 H         1 <0>         0.0000
     32 H15         2.2838   -3.3631   -0.9192 H         1 <0>         0.0000
     33 H16         9.0299   -0.9629    0.4401 H         1 <0>         0.0000
     34 H17         9.8588   -2.3644   -0.2417 H         1 <0>         0.0000
     35 H18        10.1104   -1.9374    1.4715 H         1 <0>         0.0000
     36 H19         3.4597   -4.8089   -2.4755 H         1 <0>         0.0000
     37 H20         3.2765   -3.5200   -4.3799 H         1 <0>         0.0000
@<TRIPOS>BOND
     1    1    3 ar
     2    1    5 ar
     3    1   18 1
     4    2    4 ar
     5    2    5 ar
     6    2   19 1
     7    3    6 ar
     8    3   20 1
     9    4    6 ar
    10    4   21 1
    11    5    7 1
    12    6   15 1
    13    7   14 1
    14    7   16 2
    15    8   10 1
    16    8    9 1
    17    8   22 1
    18    8   23 1
    19    9   11 1
    20    9   24 1
    21    9   25 1
    22   10   12 1
    23   10   26 1
    24   10   27 1
    25   11   13 1
    26   11   28 1
    27   11   29 1
    28   12   13 1
    29   12   30 1
    30   12   31 1
    31   13   15 1
    32   13   32 1
    33   14   33 1
    34   14   34 1
    35   14   35 1
    36   15   17 1
    37   15   36 1
    38   17   37 1
