@<TRIPOS>MOLECULE
*****
   52    53     0     0     0
SMALL
NO_CHARGES

@<TRIPOS>ATOM
      1 C1         -2.7608    0.1620    1.6538 C.ar      1 <0>         0.0000
      2 C2         -2.9107    1.2575    0.7827 C.ar      1 <0>         0.0000
      3 C3         -1.6109   -0.6114    1.5839 C.ar      1 <0>         0.0000
      4 C4         -1.9170    1.5833   -0.1356 C.ar      1 <0>         0.0000
      5 C5         -0.5967   -0.3087    0.6534 C.ar      1 <0>         0.0000
      6 C6         -0.7523    0.8058   -0.1952 C.ar      1 <0>         0.0000
      7 C7          0.5769   -1.1884    0.5117 C.2       1 <0>         0.0000
      8 C8          1.5256    0.6390   -0.8742 C.3       1 <0>         0.0000
      9 C9          1.4838   -0.8984   -0.6980 C.3       1 <0>         0.0000
     10 C10         3.4166    3.1977   -3.1477 C.3       1 <0>         0.0000
     11 C11        -2.0121   -3.1511   -2.9179 C.3       1 <0>         0.0000
     12 C12         4.8022   -3.2279    1.7237 C.3       1 <0>         0.0000
     13 C13         2.3952    1.1617   -2.0117 C.3       1 <0>         0.0000
     14 C14         0.8271   -1.5525   -1.9464 C.3       1 <0>         0.0000
     15 C15         2.8813   -1.4988   -0.4560 C.3       1 <0>         0.0000
     16 C16         2.5449    2.6885   -1.9954 C.3       1 <0>         0.0000
     17 C17         0.6284   -3.0628   -1.8288 C.3       1 <0>         0.0000
     18 C18         3.6594   -0.8233    0.6715 C.3       1 <0>         0.0000
     19 O1          0.7902   -2.1362    1.2648 O.2       1 <0>         0.0000
     20 O2          0.1564   -3.0858   -4.4611 O.2       1 <0>         0.0000
     21 O3         -0.3295   -5.1969   -3.0985 O.2       1 <0>         0.0000
     22 O4          5.9028   -1.8924   -0.3037 O.2       1 <0>         0.0000
     23 O5          5.9409   -0.8468    2.0314 O.2       1 <0>         0.0000
     24 O6          0.1930    1.1604   -1.1051 O.3       1 <0>         0.0000
     25 S1         -0.3250   -3.7310   -3.2270 S.o2      1 <0>         0.0000
     26 S2          5.2545   -1.6354    0.9949 S.o2      1 <0>         0.0000
     27 H1         -3.5415   -0.0760    2.3700 H         1 <0>         0.0000
     28 H2         -3.8098    1.8663    0.8307 H         1 <0>         0.0000
     29 H3         -1.4670   -1.4732    2.2289 H         1 <0>         0.0000
     30 H4         -2.0139    2.4355   -0.8014 H         1 <0>         0.0000
     31 H5          1.8662    1.0819    0.0732 H         1 <0>         0.0000
     32 H6          4.4244    2.7695   -3.1038 H         1 <0>         0.0000
     33 H7          3.5155    4.2875   -3.1159 H         1 <0>         0.0000
     34 H8          2.9839    2.9301   -4.1183 H         1 <0>         0.0000
     35 H9         -2.6154   -3.5665   -3.7272 H         1 <0>         0.0000
     36 H10        -2.3521   -3.5370   -1.9557 H         1 <0>         0.0000
     37 H11        -2.0432   -2.0616   -2.9484 H         1 <0>         0.0000
     38 H12         5.7473   -3.7005    1.9974 H         1 <0>         0.0000
     39 H13         4.1912   -3.0542    2.6105 H         1 <0>         0.0000
     40 H14         4.2755   -3.8355    0.9879 H         1 <0>         0.0000
     41 H15         3.3861    0.7011   -1.9426 H         1 <0>         0.0000
     42 H16         1.9657    0.8432   -2.9675 H         1 <0>         0.0000
     43 H17         1.4462   -1.3532   -2.8235 H         1 <0>         0.0000
     44 H18        -0.1316   -1.0600   -2.1273 H         1 <0>         0.0000
     45 H19         3.4708   -1.4647   -1.3750 H         1 <0>         0.0000
     46 H20         2.7390   -2.5504   -0.2014 H         1 <0>         0.0000
     47 H21         1.5531    3.1492   -2.0458 H         1 <0>         0.0000
     48 H22         2.9845    2.9965   -1.0374 H         1 <0>         0.0000
     49 H23         1.5696   -3.6159   -1.8849 H         1 <0>         0.0000
     50 H24         0.1078   -3.3736   -0.9200 H         1 <0>         0.0000
     51 H25         3.9614    0.2005    0.4344 H         1 <0>         0.0000
     52 H26         3.1175   -0.8176    1.6200 H         1 <0>         0.0000
@<TRIPOS>BOND
     1    1    2 ar
     2    1    3 ar
     3    1   27 1
     4    2    4 ar
     5    2   28 1
     6    3    5 ar
     7    3   29 1
     8    4    6 ar
     9    4   30 1
    10    5    6 ar
    11    5    7 1
    12    6   24 1
    13    7    9 1
    14    7   19 2
    15    8    9 1
    16    8   13 1
    17    8   24 1
    18    8   31 1
    19    9   14 1
    20    9   15 1
    21   10   16 1
    22   10   32 1
    23   10   33 1
    24   10   34 1
    25   11   25 1
    26   11   35 1
    27   11   36 1
    28   11   37 1
    29   12   26 1
    30   12   38 1
    31   12   39 1
    32   12   40 1
    33   13   16 1
    34   13   41 1
    35   13   42 1
    36   14   17 1
    37   14   43 1
    38   14   44 1
    39   15   18 1
    40   15   45 1
    41   15   46 1
    42   16   47 1
    43   16   48 1
    44   17   25 1
    45   17   49 1
    46   17   50 1
    47   18   26 1
    48   18   51 1
    49   18   52 1
    50   20   25 2
    51   21   25 2
    52   22   26 2
    53   23   26 2
