@<TRIPOS>MOLECULE
*****
   35    35     0     0     0
SMALL
NO_CHARGES

@<TRIPOS>ATOM
      1 C1         -0.2008   -0.1041   -0.0769 C.1       1 <0>         0.0000
      2 C2         -1.1283    0.4379   -0.6451 C.1       1 <0>         0.0000
      3 C3          1.9236   -1.3521   -0.1352 C.ar      1 <0>         0.0000
      4 C4          0.9558   -0.7741    1.9948 C.ar      1 <0>         0.0000
      5 C5          0.8911   -0.7440    0.5923 C.ar      1 <0>         0.0000
      6 C6          2.9985   -1.9763    0.5039 C.ar      1 <0>         0.0000
      7 C7          2.0205   -1.3823    2.6631 C.ar      1 <0>         0.0000
      8 C8          3.0587   -1.9829    1.9140 C.ar      1 <0>         0.0000
      9 C9          4.2451   -4.1423    2.6253 C.2       1 <0>         0.0000
     10 C10        -2.2472    1.0884   -1.3310 C.3       1 <0>         0.0000
     11 C11         3.5065   -3.9751   -0.9818 C.3       1 <0>         0.0000
     12 C12         1.4921   -2.7552    4.7418 C.3       1 <0>         0.0000
     13 C13         4.2424   -2.6130    2.6147 C.3       1 <0>         0.0000
     14 C14         4.0292   -2.6572   -0.3782 C.3       1 <0>         0.0000
     15 C15         1.9797   -1.4074    4.1796 C.3       1 <0>         0.0000
     16 O1          3.3264   -4.8502    2.2938 O.2       1 <0>         0.0000
     17 O2          5.4067   -4.7036    3.0833 O.3       1 <0>         0.0000
     18 H1          1.8815   -1.3368   -1.2212 H         1 <0>         0.0000
     19 H2          0.1578   -0.3089    2.5672 H         1 <0>         0.0000
     20 H3         -2.5305    2.0178   -0.8252 H         1 <0>         0.0000
     21 H4         -1.9835    1.3329   -2.3654 H         1 <0>         0.0000
     22 H5         -3.1269    0.4355   -1.3528 H         1 <0>         0.0000
     23 H6          3.2266   -4.6793   -0.1951 H         1 <0>         0.0000
     24 H7          4.2725   -4.4396   -1.6124 H         1 <0>         0.0000
     25 H8          2.6226   -3.7931   -1.6013 H         1 <0>         0.0000
     26 H9          0.4845   -2.9774    4.3767 H         1 <0>         0.0000
     27 H10         1.4633   -2.7314    5.8366 H         1 <0>         0.0000
     28 H11         2.1336   -3.5841    4.4316 H         1 <0>         0.0000
     29 H12         4.2872   -2.2985    3.6613 H         1 <0>         0.0000
     30 H13         5.1816   -2.2689    2.1654 H         1 <0>         0.0000
     31 H14         4.3036   -1.9751   -1.1916 H         1 <0>         0.0000
     32 H15         4.9542   -2.8601    0.1680 H         1 <0>         0.0000
     33 H16         2.9588   -1.1611    4.6065 H         1 <0>         0.0000
     34 H17         1.3049   -0.6165    4.5222 H         1 <0>         0.0000
     35 H18         6.0475   -4.0068    3.3061 H         1 <0>         0.0000
@<TRIPOS>BOND
     1    1    2 3
     2    1    5 1
     3    2   10 1
     4    3    5 ar
     5    3    6 ar
     6    3   18 1
     7    4    5 ar
     8    4    7 ar
     9    4   19 1
    10    6    8 ar
    11    6   14 1
    12    7    8 ar
    13    7   15 1
    14    8   13 1
    15    9   13 1
    16    9   16 2
    17    9   17 1
    18   10   20 1
    19   10   21 1
    20   10   22 1
    21   11   14 1
    22   11   23 1
    23   11   24 1
    24   11   25 1
    25   12   15 1
    26   12   26 1
    27   12   27 1
    28   12   28 1
    29   13   29 1
    30   13   30 1
    31   14   31 1
    32   14   32 1
    33   15   33 1
    34   15   34 1
    35   17   35 1
