@<TRIPOS>MOLECULE
*****
   22    22     0     0     0
SMALL
NO_CHARGES

@<TRIPOS>ATOM
      1 C1          6.7860   -2.6440   -0.1720 C.ar      1 <0>         0.0000
      2 C2          6.4060   -1.8970    0.9380 C.ar      1 <0>         0.0000
      3 C3          6.1460   -2.4470   -1.3910 C.ar      1 <0>         0.0000
      4 C4          5.3870   -0.9550    0.8300 C.ar      1 <0>         0.0000
      5 C5          5.1270   -1.5060   -1.5000 C.ar      1 <0>         0.0000
      6 C6          4.7400   -0.7560   -0.3900 C.ar      1 <0>         0.0000
      7 C7          2.3300   -0.4900   -0.7890 C.2       1 <0>         0.0000
      8 C8          0.7870   -2.2770   -0.0880 C.3       1 <0>         0.0000
      9 C9          3.6160    0.2630   -0.5110 C.3       1 <0>         0.0000
     10 N1          1.9960   -1.4720    0.0530 N.am      1 <0>         0.0000
     11 O1          1.6110   -0.2050   -1.7390 O.2       1 <0>         0.0000
     12 H1          7.5620   -3.3610   -0.0900 H         1 <0>         0.0000
     13 H2          6.8960   -2.0450    1.8670 H         1 <0>         0.0000
     14 H3          6.4340   -3.0150   -2.2390 H         1 <0>         0.0000
     15 H4          5.1090   -0.3890    1.6820 H         1 <0>         0.0000
     16 H5          4.6410   -1.3640   -2.4330 H         1 <0>         0.0000
     17 H6          0.7410   -3.0310    0.6990 H         1 <0>         0.0000
     18 H7          0.7870   -2.7740   -1.0610 H         1 <0>         0.0000
     19 H8         -0.0940   -1.6360   -0.0250 H         1 <0>         0.0000
     20 H9          3.4990    0.7930    0.4230 H         1 <0>         0.0000
     21 H10         3.8170    0.9220   -1.3430 H         1 <0>         0.0000
     22 H11         2.6710   -1.7280    0.7580 H         1 <0>         0.0000
@<TRIPOS>BOND
     1    1    2 ar
     2    1    3 ar
     3    1   12 1
     4    2    4 ar
     5    2   13 1
     6    3    5 ar
     7    3   14 1
     8    4    6 ar
     9    4   15 1
    10    5    6 ar
    11    5   16 1
    12    6    9 1
    13    7    9 1
    14    7   10 am
    15    7   11 2
    16    8   10 1
    17    8   17 1
    18    8   18 1
    19    8   19 1
    20    9   20 1
    21    9   21 1
    22   10   22 1
