@<TRIPOS>MOLECULE
*****
   25    26     0     0     0
SMALL
NO_CHARGES

@<TRIPOS>ATOM
      1 C1          1.8427    0.7033   -0.6824 C.ar      1 <0>         0.0000
      2 C2          0.8528    1.6863   -0.7631 C.ar      1 <0>         0.0000
      3 C3          2.2413    0.0020   -1.8392 C.ar      1 <0>         0.0000
      4 C4          0.3226    1.8946   -2.0332 C.ar      1 <0>         0.0000
      5 C5          0.7903    1.1385   -3.1486 C.ar      1 <0>         0.0000
      6 C6         -0.7049    2.4722   -3.9075 C.2       1 <0>         0.0000
      7 C7         -1.6964    3.1945   -4.7671 C.3       1 <0>         0.0000
      8 C8         -3.6109    6.1260   -3.6084 C.3       1 <0>         0.0000
      9 C9         -3.2773    4.9675   -4.5237 C.3       1 <0>         0.0000
     10 N1          1.7386    0.1988   -3.0637 N.ar      1 <0>         0.0000
     11 N2          0.1240    1.5334   -4.3039 N.2       1 <0>         0.0000
     12 N3         -0.6436    2.7350   -2.5563 N.pl3     1 <0>         0.0000
     13 O1         -3.8976    5.6040   -2.3077 O.3       1 <0>         0.0000
     14 O2         -2.0485    4.3960   -4.0953 O.3       1 <0>         0.0000
     15 H1          2.3118    0.4707    0.2690 H         1 <0>         0.0000
     16 H2          0.5245    2.2427    0.1111 H         1 <0>         0.0000
     17 H3          3.0135   -0.7616   -1.7592 H         1 <0>         0.0000
     18 H4         -1.2585    3.3889   -5.7546 H         1 <0>         0.0000
     19 H5         -2.5834    2.5584   -4.9094 H         1 <0>         0.0000
     20 H6         -4.4801    6.6569   -4.0234 H         1 <0>         0.0000
     21 H7         -2.7592    6.8198   -3.5785 H         1 <0>         0.0000
     22 H8         -3.1960    5.3306   -5.5596 H         1 <0>         0.0000
     23 H9         -4.0817    4.2186   -4.4789 H         1 <0>         0.0000
     24 H10        -1.1809    3.4643   -2.1019 H         1 <0>         0.0000
     25 H11        -4.0892    6.3478   -1.7166 H         1 <0>         0.0000
@<TRIPOS>BOND
     1    1    2 ar
     2    1    3 ar
     3    1   15 1
     4    2    4 ar
     5    2   16 1
     6    3   10 ar
     7    3   17 1
     8    4    5 ar
     9    4   12 1
    10    5   10 ar
    11    5   11 1
    12    6    7 1
    13    6   11 2
    14    6   12 1
    15    7   14 1
    16    7   18 1
    17    7   19 1
    18    8    9 1
    19    8   13 1
    20    8   20 1
    21    8   21 1
    22    9   14 1
    23    9   22 1
    24    9   23 1
    25   12   24 1
    26   13   25 1
