@<TRIPOS>MOLECULE
*****
   25    26     0     0     0
SMALL
NO_CHARGES

@<TRIPOS>ATOM
      1 C1          1.8762    1.7908    0.8881 C.ar      1 <0>         0.0000
      2 C2          0.5468    1.6167    0.4913 C.ar      1 <0>         0.0000
      3 C3          2.1904    2.0897    2.2288 C.ar      1 <0>         0.0000
      4 C4         -0.4225    1.7533    1.4881 C.ar      1 <0>         0.0000
      5 C5          0.0272    2.0529    2.8023 C.ar      1 <0>         0.0000
      6 C6         -2.1832    1.8910    2.7045 C.2       1 <0>         0.0000
      7 C7         -3.5960    1.8520    3.1982 C.3       1 <0>         0.0000
      8 C8         -4.9395    3.4486    6.2247 C.3       1 <0>         0.0000
      9 C9         -4.9485    2.4812    5.0541 C.3       1 <0>         0.0000
     10 N1          1.2810    2.2278    3.2084 N.ar      1 <0>         0.0000
     11 N2         -1.8107    1.6634    1.4627 N.2       1 <0>         0.0000
     12 N3         -1.1303    2.1255    3.5612 N.pl3     1 <0>         0.0000
     13 O1         -4.7855    4.7977    5.7973 O.3       1 <0>         0.0000
     14 O2         -3.6673    2.5718    4.4229 O.3       1 <0>         0.0000
     15 H1          2.6834    1.6991    0.1674 H         1 <0>         0.0000
     16 H2          0.2765    1.3884   -0.5360 H         1 <0>         0.0000
     17 H3          3.2291    2.2241    2.5237 H         1 <0>         0.0000
     18 H4         -4.2566    2.2853    2.4363 H         1 <0>         0.0000
     19 H5         -3.9028    0.8061    3.3544 H         1 <0>         0.0000
     20 H6         -4.1434    3.1620    6.9280 H         1 <0>         0.0000
     21 H7         -5.8959    3.3930    6.7516 H         1 <0>         0.0000
     22 H8         -5.7355    2.7616    4.3401 H         1 <0>         0.0000
     23 H9         -5.1301    1.4515    5.3980 H         1 <0>         0.0000
     24 H10        -1.2107    2.3671    4.5409 H         1 <0>         0.0000
     25 H11        -3.9987    4.8243    5.2281 H         1 <0>         0.0000
@<TRIPOS>BOND
     1    1    2 ar
     2    1    3 ar
     3    1   15 1
     4    2    4 ar
     5    2   16 1
     6    3   10 ar
     7    3   17 1
     8    4    5 ar
     9    4   11 1
    10    5   10 ar
    11    5   12 1
    12    6    7 1
    13    6   11 2
    14    6   12 1
    15    7   14 1
    16    7   18 1
    17    7   19 1
    18    8    9 1
    19    8   13 1
    20    8   20 1
    21    8   21 1
    22    9   14 1
    23    9   22 1
    24    9   23 1
    25   12   24 1
    26   13   25 1
