@<TRIPOS>MOLECULE
*****
   25    26     0     0     0
SMALL
NO_CHARGES

@<TRIPOS>ATOM
      1 C1          1.9703    1.7534    1.5912 C.ar      1 <0>         0.0000
      2 C2          0.9989    2.7415    1.4028 C.ar      1 <0>         0.0000
      3 C3          1.6234    0.5025    2.1387 C.ar      1 <0>         0.0000
      4 C4         -0.3044    2.4132    1.7845 C.ar      1 <0>         0.0000
      5 C5         -0.5211    1.1166    2.3251 C.ar      1 <0>         0.0000
      6 C6         -2.3959    2.2964    2.2393 C.2       1 <0>         0.0000
      7 C7         -3.8512    2.6110    2.4125 C.3       1 <0>         0.0000
      8 C8         -6.4712    0.3557    3.6985 C.3       1 <0>         0.0000
      9 C9         -5.8994    1.6483    3.1227 C.3       1 <0>         0.0000
     10 N1          0.3802    0.1580    2.5150 N.ar      1 <0>         0.0000
     11 N2         -1.4994    3.1241    1.7444 N.2       1 <0>         0.0000
     12 N3         -1.8771    1.0767    2.6078 N.pl3     1 <0>         0.0000
     13 O1         -7.8700    0.4753    3.9553 O.3       1 <0>         0.0000
     14 O2         -4.5049    1.4531    2.9103 O.3       1 <0>         0.0000
     15 H1          3.0050    1.9382    1.3176 H         1 <0>         0.0000
     16 H2          1.2394    3.7142    0.9827 H         1 <0>         0.0000
     17 H3          2.3893   -0.2575    2.2796 H         1 <0>         0.0000
     18 H4         -3.9637    3.4546    3.1094 H         1 <0>         0.0000
     19 H5         -4.2742    2.9202    1.4458 H         1 <0>         0.0000
     20 H6         -6.0019    0.1436    4.6621 H         1 <0>         0.0000
     21 H7         -6.2502   -0.4816    3.0228 H         1 <0>         0.0000
     22 H8         -6.0738    2.4784    3.8219 H         1 <0>         0.0000
     23 H9         -6.3949    1.8969    2.1697 H         1 <0>         0.0000
     24 H10        -2.4075    0.3089    3.0000 H         1 <0>         0.0000
     25 H11        -8.3395    0.4842    3.1070 H         1 <0>         0.0000
@<TRIPOS>BOND
     1    1    2 ar
     2    1    3 ar
     3    1   15 1
     4    2    4 ar
     5    2   16 1
     6    3   10 ar
     7    3   17 1
     8    4    5 ar
     9    4   11 1
    10    5   10 ar
    11    5   12 1
    12    6    7 1
    13    6   11 2
    14    6   12 1
    15    7   14 1
    16    7   18 1
    17    7   19 1
    18    8    9 1
    19    8   13 1
    20    8   20 1
    21    8   21 1
    22    9   14 1
    23    9   22 1
    24    9   23 1
    25   12   24 1
    26   13   25 1
