@<TRIPOS>MOLECULE
*****
   25    26     0     0     0
SMALL
NO_CHARGES

@<TRIPOS>ATOM
      1 C1          2.1437    0.5734   -1.0019 C.ar      1 <0>         0.0000
      2 C2          0.7498    0.4887   -1.0527 C.ar      1 <0>         0.0000
      3 C3          2.8254    1.5370   -1.7737 C.ar      1 <0>         0.0000
      4 C4          0.1308    1.4044   -1.8989 C.ar      1 <0>         0.0000
      5 C5          0.9016    2.3411   -2.6391 C.ar      1 <0>         0.0000
      6 C6         -1.1581    2.7238   -3.1497 C.2       1 <0>         0.0000
      7 C7         -2.4236    3.2639   -3.7741 C.3       1 <0>         0.0000
      8 C8         -0.9268    6.4755   -4.3034 C.3       1 <0>         0.0000
      9 C9         -2.0623    5.6434   -3.7232 C.3       1 <0>         0.0000
     10 N1          2.2337    2.4186   -2.5881 N.ar      1 <0>         0.0000
     11 N2          0.0600    3.1405   -3.4071 N.2       1 <0>         0.0000
     12 N3         -1.1856    1.6774   -2.2448 N.pl3     1 <0>         0.0000
     13 O1          0.3610    6.0098   -3.9465 O.3       1 <0>         0.0000
     14 O2         -2.2112    4.4403   -4.5041 O.3       1 <0>         0.0000
     15 H1          2.7127   -0.1006   -0.3687 H         1 <0>         0.0000
     16 H2          0.1988   -0.2439   -0.4687 H         1 <0>         0.0000
     17 H3          3.9115    1.5904   -1.7234 H         1 <0>         0.0000
     18 H4         -2.8090    2.5221   -4.4844 H         1 <0>         0.0000
     19 H5         -3.1898    3.3912   -2.9912 H         1 <0>         0.0000
     20 H6         -1.0111    7.4983   -3.9184 H         1 <0>         0.0000
     21 H7         -1.0578    6.5166   -5.3963 H         1 <0>         0.0000
     22 H8         -3.0102    6.1977   -3.7666 H         1 <0>         0.0000
     23 H9         -1.8400    5.4024   -2.6764 H         1 <0>         0.0000
     24 H10        -2.0129    1.2080   -1.9000 H         1 <0>         0.0000
     25 H11         0.3736    5.0303   -4.0021 H         1 <0>         0.0000
@<TRIPOS>BOND
     1    1    2 ar
     2    1    3 ar
     3    1   15 1
     4    2    4 ar
     5    2   16 1
     6    3   10 ar
     7    3   17 1
     8    4    5 ar
     9    4   12 1
    10    5   10 ar
    11    5   11 1
    12    6    7 1
    13    6   11 2
    14    6   12 1
    15    7   14 1
    16    7   18 1
    17    7   19 1
    18    8    9 1
    19    8   13 1
    20    8   20 1
    21    8   21 1
    22    9   14 1
    23    9   22 1
    24    9   23 1
    25   12   24 1
    26   13   25 1
