@<TRIPOS>MOLECULE
*****
   74    77     0     0     0
SMALL
NO_CHARGES

@<TRIPOS>ATOM
      1 C1          3.9305   -0.0148   -4.3895 C.ar      1 <0>         0.0000
      2 C2          4.4256   -0.6955   -3.2711 C.ar      1 <0>         0.0000
      3 C3          2.7219    0.6819   -4.2885 C.ar      1 <0>         0.0000
      4 C4          3.7155   -0.6871   -2.0705 C.ar      1 <0>         0.0000
      5 C5          2.0176    0.6965   -3.0818 C.ar      1 <0>         0.0000
      6 C6          2.3176   -3.4504    0.3592 C.ar      1 <0>         0.0000
      7 C7          1.3362   -2.8684   -1.7558 C.ar      1 <0>         0.0000
      8 C8         -0.1408   -1.8258    1.8211 C.ar      1 <0>         0.0000
      9 C9          2.5670   -4.7487   -0.0982 C.ar      1 <0>         0.0000
     10 C10         1.5672   -4.1554   -2.2236 C.ar      1 <0>         0.0000
     11 C11        -0.7071   -1.7363    3.0922 C.ar      1 <0>         0.0000
     12 C12         0.8730    0.0172    3.6382 C.ar      1 <0>         0.0000
     13 C13         1.7185   -2.4811   -0.4566 C.ar      1 <0>         0.0000
     14 C14         2.4936    0.0016   -1.9556 C.ar      1 <0>         0.0000
     15 C15         0.9173   -0.9936    1.4247 C.ar      1 <0>         0.0000
     16 C16         1.4375   -0.0672    2.3632 C.ar      1 <0>         0.0000
     17 C17         2.1936   -5.1060   -1.4008 C.ar      1 <0>         0.0000
     18 C18        -0.1977   -0.8046    4.0043 C.ar      1 <0>         0.0000
     19 C19         1.4839   -1.1043    0.0533 C.2       1 <0>         0.0000
     20 C20         1.7474    0.0184   -0.6715 C.2       1 <0>         0.0000
     21 C21         2.6152    0.8051    1.9929 C.3       1 <0>         0.0000
     22 C22         1.3234    1.3737   -0.1342 C.3       1 <0>         0.0000
     23 C23         2.2654    1.9021    0.9664 C.3       1 <0>         0.0000
     24 C24         3.8033   -9.7551   -1.2425 C.3       1 <0>         0.0000
     25 C25         3.1335   -8.6073   -2.0065 C.3       1 <0>         0.0000
     26 C26         7.0762  -16.8010   -0.9435 C.3       1 <0>         0.0000
     27 C27         3.9310  -11.0265   -2.0912 C.3       1 <0>         0.0000
     28 C28         6.2438  -15.9362   -1.8988 C.3       1 <0>         0.0000
     29 C29         3.0267   -7.3453   -1.1633 C.3       1 <0>         0.0000
     30 C30         7.5780  -18.0840   -1.5836 C.3       1 <0>         0.0000
     31 C31         4.5975  -12.1660   -1.3235 C.3       1 <0>         0.0000
     32 C32         5.7713  -14.6477   -1.2290 C.3       1 <0>         0.0000
     33 O1          5.8357  -13.1797   -3.4944 O.2       1 <0>         0.0000
     34 O2         -0.7011   -0.6608    5.2765 O.3       1 <0>         0.0000
     35 O3          2.3842   -6.3440   -1.9542 O.3       1 <0>         0.0000
     36 F1          8.4459  -17.7877   -2.6493 F         1 <0>         0.0000
     37 S1          4.8311  -13.6182   -2.4377 S.o       1 <0>         0.0000
     38 H1          4.4814   -0.0245   -5.3265 H         1 <0>         0.0000
     39 H2          5.3680   -1.2339   -3.3352 H         1 <0>         0.0000
     40 H3          2.3255    1.2128   -5.1506 H         1 <0>         0.0000
     41 H4          4.1027   -1.2227   -1.2091 H         1 <0>         0.0000
     42 H5          1.0727    1.2310   -3.0226 H         1 <0>         0.0000
     43 H6          2.6045   -3.1863    1.3736 H         1 <0>         0.0000
     44 H7          0.8527   -2.1461   -2.4058 H         1 <0>         0.0000
     45 H8         -0.5306   -2.5546    1.1161 H         1 <0>         0.0000
     46 H9          3.0446   -5.4610    0.5650 H         1 <0>         0.0000
     47 H10         1.2697   -4.4503   -3.2258 H         1 <0>         0.0000
     48 H11        -1.5355   -2.3860    3.3714 H         1 <0>         0.0000
     49 H12         1.2644    0.7178    4.3711 H         1 <0>         0.0000
     50 H13         3.0418    1.2610    2.8918 H         1 <0>         0.0000
     51 H14         3.3927    0.1669    1.5580 H         1 <0>         0.0000
     52 H15         1.2797    2.1071   -0.9438 H         1 <0>         0.0000
     53 H16         0.3148    1.2940    0.2851 H         1 <0>         0.0000
     54 H17         1.7764    2.7473    1.4658 H         1 <0>         0.0000
     55 H18         3.1945    2.2812    0.5250 H         1 <0>         0.0000
     56 H19         4.8024   -9.4424   -0.9106 H         1 <0>         0.0000
     57 H20         3.2296   -9.9758   -0.3319 H         1 <0>         0.0000
     58 H21         3.7020   -8.3786   -2.9150 H         1 <0>         0.0000
     59 H22         2.1280   -8.9036   -2.3271 H         1 <0>         0.0000
     60 H23         6.4797  -17.0806   -0.0641 H         1 <0>         0.0000
     61 H24         7.9380  -16.2319   -0.5746 H         1 <0>         0.0000
     62 H25         2.9371  -11.3425   -2.4320 H         1 <0>         0.0000
     63 H26         4.5228  -10.8147   -2.9881 H         1 <0>         0.0000
     64 H27         6.8400  -15.6825   -2.7798 H         1 <0>         0.0000
     65 H28         5.3762  -16.5095   -2.2503 H         1 <0>         0.0000
     66 H29         4.0239   -6.9978   -0.8590 H         1 <0>         0.0000
     67 H30         2.4402   -7.5353   -0.2532 H         1 <0>         0.0000
     68 H31         6.7555  -18.6794   -1.9958 H         1 <0>         0.0000
     69 H32         8.1422  -18.6927   -0.8695 H         1 <0>         0.0000
     70 H33         5.5937  -11.8760   -0.9720 H         1 <0>         0.0000
     71 H34         3.9921  -12.4948   -0.4707 H         1 <0>         0.0000
     72 H35         6.6206  -14.0431   -0.8925 H         1 <0>         0.0000
     73 H36         5.1074  -14.8465   -0.3793 H         1 <0>         0.0000
     74 H37        -1.4366   -1.2824    5.3949 H         1 <0>         0.0000
@<TRIPOS>BOND
     1    1    3 ar
     2    1    2 ar
     3    1   38 1
     4    2    4 ar
     5    2   39 1
     6    3    5 ar
     7    3   40 1
     8    4   14 ar
     9    4   41 1
    10    5   14 ar
    11    5   42 1
    12    6    9 ar
    13    6   13 ar
    14    6   43 1
    15    7   10 ar
    16    7   13 ar
    17    7   44 1
    18    8   11 ar
    19    8   15 ar
    20    8   45 1
    21    9   17 ar
    22    9   46 1
    23   10   17 ar
    24   10   47 1
    25   11   18 ar
    26   11   48 1
    27   12   16 ar
    28   12   18 ar
    29   12   49 1
    30   13   19 1
    31   14   20 1
    32   15   16 ar
    33   15   19 1
    34   16   21 1
    35   17   35 1
    36   18   34 1
    37   19   20 2
    38   20   22 1
    39   21   23 1
    40   21   50 1
    41   21   51 1
    42   22   23 1
    43   22   52 1
    44   22   53 1
    45   23   54 1
    46   23   55 1
    47   24   25 1
    48   24   27 1
    49   24   56 1
    50   24   57 1
    51   25   29 1
    52   25   58 1
    53   25   59 1
    54   26   28 1
    55   26   30 1
    56   26   60 1
    57   26   61 1
    58   27   31 1
    59   27   62 1
    60   27   63 1
    61   28   32 1
    62   28   64 1
    63   28   65 1
    64   29   35 1
    65   29   66 1
    66   29   67 1
    67   30   36 1
    68   30   68 1
    69   30   69 1
    70   31   37 1
    71   31   70 1
    72   31   71 1
    73   32   37 1
    74   32   72 1
    75   32   73 1
    76   33   37 2
    77   34   74 1
