@<TRIPOS>MOLECULE
*****
   60    63     0     0     0
SMALL
NO_CHARGES

@<TRIPOS>ATOM
      1 C1          4.3288    8.5006    0.0324 C.ar      1 <0>         0.0000
      2 C2          3.6355    7.2966   -0.0403 C.ar      1 <0>         0.0000
      3 C3         -2.1807    1.5327   -4.4597 C.ar      1 <0>         0.0000
      4 C4          3.8005    9.6049    0.7150 C.ar      1 <0>         0.0000
      5 C5         -1.6222    1.7475   -3.1970 C.ar      1 <0>         0.0000
      6 C6          1.8394    8.2820    1.2692 C.ar      1 <0>         0.0000
      7 C7         -3.4351    3.2578   -2.6026 C.ar      1 <0>         0.0000
      8 C8          2.3774    7.1857    0.5844 C.ar      1 <0>         0.0000
      9 C9         -3.3729    2.1838   -4.7995 C.ar      1 <0>         0.0000
     10 C10        -3.9797    3.0391   -3.8729 C.ar      1 <0>         0.0000
     11 C11         2.5473    9.4872    1.3345 C.ar      1 <0>         0.0000
     12 C12        -2.2426    2.6010   -2.2732 C.ar      1 <0>         0.0000
     13 C13         0.1691    4.3601    0.6968 C.2       1 <0>         0.0000
     14 C14         1.2227    3.8602   -0.0187 C.2       1 <0>         0.0000
     15 C15         1.6145    5.9427    0.5262 C.2       1 <0>         0.0000
     16 C16        -2.7356    0.5202   -7.4382 C.2       1 <0>         0.0000
     17 C17        -5.2478    3.6254   -4.4578 C.3       1 <0>         0.0000
     18 C18        -5.0555    3.3931   -5.9745 C.3       1 <0>         0.0000
     19 C19        -4.1837    2.1127   -6.0866 C.3       1 <0>         0.0000
     20 C20         1.5329    2.5621   -0.6720 C.3       1 <0>         0.0000
     21 C21        -3.4649    2.0143   -9.9362 C.3       1 <0>         0.0000
     22 C22         2.5972   11.7522    2.1033 C.3       1 <0>         0.0000
     23 C23        -1.1340    3.7128    1.0595 C.3       1 <0>         0.0000
     24 C24        -4.2444    2.1799   -8.6255 C.3       1 <0>         0.0000
     25 C25        -2.1186    3.6584   -0.1105 C.3       1 <0>         0.0000
     26 C26        -3.3686    1.9582   -7.3820 C.3       1 <0>         0.0000
     27 N1          0.4379    5.6869    1.0312 N.2       1 <0>         0.0000
     28 O1         -3.5716   -0.4244   -7.4981 O.co2     1 <0>         0.0000
     29 O2         -1.4729    0.4594   -7.4096 O.co2     1 <0>         0.0000
     30 O3          2.1590    4.8720   -0.1288 O.3       1 <0>         0.0000
     31 O4          1.9312   10.4990    2.0291 O.3       1 <0>         0.0000
     32 O5         -1.5953    2.7360   -1.0535 O.3       1 <0>         0.0000
     33 H1          5.2982    8.5928   -0.4509 H         1 <0>         0.0000
     34 H2          4.0494    6.4490   -0.5756 H         1 <0>         0.0000
     35 H3         -1.6844    0.8924   -5.1851 H         1 <0>         0.0000
     36 H4          4.3640   10.5302    0.7521 H         1 <0>         0.0000
     37 H5         -0.6924    1.2618   -2.9110 H         1 <0>         0.0000
     38 H6          0.8694    8.2016    1.7485 H         1 <0>         0.0000
     39 H7         -3.9282    3.9276   -1.9041 H         1 <0>         0.0000
     40 H8         -6.1236    3.0707   -4.0894 H         1 <0>         0.0000
     41 H9         -5.3994    4.6793   -4.1938 H         1 <0>         0.0000
     42 H10        -6.0036    3.3109   -6.5145 H         1 <0>         0.0000
     43 H11        -4.5011    4.2401   -6.3997 H         1 <0>         0.0000
     44 H12        -4.8364    1.2287   -6.0332 H         1 <0>         0.0000
     45 H13         1.5492    2.6666   -1.7623 H         1 <0>         0.0000
     46 H14         2.5081    2.1803   -0.3488 H         1 <0>         0.0000
     47 H15         0.7568    1.8368   -0.4278 H         1 <0>         0.0000
     48 H16        -3.0510    1.0047  -10.0099 H         1 <0>         0.0000
     49 H17        -4.1101    2.1879  -10.8080 H         1 <0>         0.0000
     50 H18        -2.6267    2.7203   -9.9886 H         1 <0>         0.0000
     51 H19         1.9408   12.4062    2.6798 H         1 <0>         0.0000
     52 H20         2.7541   12.1844    1.1067 H         1 <0>         0.0000
     53 H21         3.5634   11.6656    2.6173 H         1 <0>         0.0000
     54 H22        -0.9736    2.6909    1.4196 H         1 <0>         0.0000
     55 H23        -1.5844    4.2864    1.8752 H         1 <0>         0.0000
     56 H24        -4.6964    3.1821   -8.6022 H         1 <0>         0.0000
     57 H25        -5.0624    1.4501   -8.5978 H         1 <0>         0.0000
     58 H26        -3.1068    3.3268    0.2406 H         1 <0>         0.0000
     59 H27        -2.2273    4.6542   -0.5606 H         1 <0>         0.0000
     60 H28        -2.5532    2.6945   -7.3785 H         1 <0>         0.0000
@<TRIPOS>BOND
     1    1    2 ar
     2    1    4 ar
     3    1   33 1
     4    2    8 ar
     5    2   34 1
     6    3    5 ar
     7    3    9 ar
     8    3   35 1
     9    4   11 ar
    10    4   36 1
    11    5   12 ar
    12    5   37 1
    13    6    8 ar
    14    6   11 ar
    15    6   38 1
    16    7   10 ar
    17    7   12 ar
    18    7   39 1
    19    8   15 1
    20    9   10 ar
    21    9   19 1
    22   10   17 1
    23   11   31 1
    24   12   32 1
    25   13   14 2
    26   13   23 1
    27   13   27 1
    28   14   20 1
    29   14   30 1
    30   15   27 2
    31   15   30 1
    32   16   26 1
    33   16   28 1
    34   16   29 2
    35   17   18 1
    36   17   40 1
    37   17   41 1
    38   18   19 1
    39   18   42 1
    40   18   43 1
    41   19   26 1
    42   19   44 1
    43   20   45 1
    44   20   46 1
    45   20   47 1
    46   21   24 1
    47   21   48 1
    48   21   49 1
    49   21   50 1
    50   22   31 1
    51   22   51 1
    52   22   52 1
    53   22   53 1
    54   23   25 1
    55   23   54 1
    56   23   55 1
    57   24   26 1
    58   24   56 1
    59   24   57 1
    60   25   32 1
    61   25   58 1
    62   25   59 1
    63   26   60 1
