@<TRIPOS>MOLECULE
*****
   27    27     0     0     0
SMALL
NO_CHARGES

@<TRIPOS>ATOM
      1 C1         -2.3117   -2.5360   -3.7951 C.2       1 <0>         0.0000
      2 C2         -0.2800   -2.0252   -3.4185 C.2       1 <0>         0.0000
      3 C3         -0.2924   -2.5795   -4.6767 C.2       1 <0>         0.0000
      4 C4         -0.9686    2.2421   -3.1556 C.3       1 <0>         0.0000
      5 C5          1.7059    1.2024   -5.3704 C.3       1 <0>         0.0000
      6 C6         -1.0701    0.7561   -3.2184 C.3       1 <0>         0.0000
      7 C7          0.3611    0.5697   -5.2530 C.3       1 <0>         0.0000
      8 N1         -1.5400   -2.0013   -2.8750 N.2       1 <0>         0.0000
      9 N2          0.8769   -1.5480   -2.7800 N.2       1 <0>         0.0000
     10 N3          1.0425   -0.3420   -3.0553 N.2       1 <0>         0.0000
     11 N4         -1.6006   -2.9023   -4.9039 N.pl3     1 <0>         0.0000
     12 N5          0.0826    0.1809   -3.8813 N.pl3     1 <0>         0.0000
     13 N6          0.7121   -2.8219   -5.6183 N.pl3     1 <0>         0.0000
     14 O1          0.4204   -3.3585   -6.7268 O.3       1 <0>         0.0000
     15 O2          1.9093   -2.5040   -5.3584 O.2       1 <0>         0.0000
     16 H1         -3.3795   -2.6855   -3.7225 H         1 <0>         0.0000
     17 H2         -0.9061    2.6493   -4.1756 H         1 <0>         0.0000
     18 H3         -1.8579    2.6493   -2.6522 H         1 <0>         0.0000
     19 H4         -0.0669    2.5245   -2.5924 H         1 <0>         0.0000
     20 H5          2.4767    0.4906   -5.0400 H         1 <0>         0.0000
     21 H6          1.8896    1.4812   -6.4185 H         1 <0>         0.0000
     22 H7          1.7437    2.1027   -4.7394 H         1 <0>         0.0000
     23 H8         -1.1321    0.3569   -2.1952 H         1 <0>         0.0000
     24 H9         -1.9784    0.4814   -3.7748 H         1 <0>         0.0000
     25 H10        -0.4036    1.2873   -5.5851 H         1 <0>         0.0000
     26 H11         0.3277   -0.3241   -5.8933 H         1 <0>         0.0000
     27 H12        -1.9785   -3.3326   -5.7378 H         1 <0>         0.0000
@<TRIPOS>BOND
     1    1    8 2
     2    1   11 1
     3    1   16 1
     4    2    3 2
     5    2    8 1
     6    2    9 1
     7    3   11 1
     8    3   13 1
     9    4    6 1
    10    4   17 1
    11    4   18 1
    12    4   19 1
    13    5    7 1
    14    5   20 1
    15    5   21 1
    16    5   22 1
    17    6   12 1
    18    6   23 1
    19    6   24 1
    20    7   12 1
    21    7   25 1
    22    7   26 1
    23    9   10 2
    24   10   12 1
    25   11   27 1
    26   13   14 1
    27   13   15 2
