@<TRIPOS>MOLECULE
*****
   33    34     0     0     0
SMALL
NO_CHARGES

@<TRIPOS>ATOM
      1 C1         -3.5575   -5.6868    2.6685 C.ar      1 <0>         0.0000
      2 C2         -3.3409   -6.1085    1.3530 C.ar      1 <0>         0.0000
      3 C3         -3.5833   -4.3140    2.9502 C.ar      1 <0>         0.0000
      4 C4         -3.1454   -5.1622    0.3399 C.ar      1 <0>         0.0000
      5 C5         -3.3961   -3.3727    1.9362 C.ar      1 <0>         0.0000
      6 C6         -3.1649   -3.7855    0.6119 C.ar      1 <0>         0.0000
      7 C7         -4.2504   -1.7956   -0.7734 C.2       1 <0>         0.0000
      8 C8         -1.8003   -1.8854   -0.3007 C.2       1 <0>         0.0000
      9 C9         -0.7367   -0.6120   -4.1035 C.3       1 <0>         0.0000
     10 C10        -1.7572    0.3066   -3.4488 C.3       1 <0>         0.0000
     11 C11        -0.3755    0.1619   -2.8548 C.3       1 <0>         0.0000
     12 C12         0.5989    1.3180   -2.9847 C.3       1 <0>         0.0000
     13 C13        -0.2199   -0.5796   -1.5396 C.3       1 <0>         0.0000
     14 C14        -2.9658   -2.8031   -0.5041 C.3       1 <0>         0.0000
     15 O1         -5.0413   -1.6693    0.1772 O.co2     1 <0>         0.0000
     16 O2         -4.2252   -1.2954   -1.9219 O.co2     1 <0>         0.0000
     17 O3         -1.4632   -1.3423    0.7404 O.2       1 <0>         0.0000
     18 O4         -1.1466   -1.6714   -1.4853 O.3       1 <0>         0.0000
     19 H1         -3.7088   -6.4159    3.4626 H         1 <0>         0.0000
     20 H2         -3.3223   -7.1705    1.1140 H         1 <0>         0.0000
     21 H3         -3.7606   -3.9754    3.9696 H         1 <0>         0.0000
     22 H4         -2.9767   -5.4969   -0.6824 H         1 <0>         0.0000
     23 H5         -3.4364   -2.3126    2.1500 H         1 <0>         0.0000
     24 H6         -0.9156   -1.6783   -4.0061 H         1 <0>         0.0000
     25 H7         -0.2761   -0.3023   -5.0399 H         1 <0>         0.0000
     26 H8         -1.9822    1.2470   -3.9485 H         1 <0>         0.0000
     27 H9         -2.5937   -0.1704   -2.9411 H         1 <0>         0.0000
     28 H10         1.6408    0.9739   -2.9286 H         1 <0>         0.0000
     29 H11         0.4461    2.0566   -2.1869 H         1 <0>         0.0000
     30 H12         0.4700    1.8329   -3.9429 H         1 <0>         0.0000
     31 H13        -0.3961    0.0882   -0.6917 H         1 <0>         0.0000
     32 H14         0.7977   -0.9856   -1.4456 H         1 <0>         0.0000
     33 H15        -2.8215   -3.3249   -1.4506 H         1 <0>         0.0000
@<TRIPOS>BOND
     1    1    3 ar
     2    1    2 ar
     3    1   19 1
     4    2    4 ar
     5    2   20 1
     6    3    5 ar
     7    3   21 1
     8    4    6 ar
     9    4   22 1
    10    5    6 ar
    11    5   23 1
    12    6   14 1
    13    7   14 1
    14    7   15 1
    15    7   16 2
    16    8   14 1
    17    8   17 2
    18    8   18 1
    19    9   10 1
    20    9   11 1
    21    9   24 1
    22    9   25 1
    23   10   11 1
    24   10   26 1
    25   10   27 1
    26   11   12 1
    27   11   13 1
    28   12   28 1
    29   12   29 1
    30   12   30 1
    31   13   18 1
    32   13   31 1
    33   13   32 1
    34   14   33 1
