@<TRIPOS>MOLECULE
*****
   34    35     0     0     0
SMALL
NO_CHARGES

@<TRIPOS>ATOM
      1 C1          0.7724   -4.4382   -1.3783 C.ar      1 <0>         0.0000
      2 C2         -0.3479   -5.1763   -0.9842 C.ar      1 <0>         0.0000
      3 C3          0.7797   -3.0497   -1.2102 C.ar      1 <0>         0.0000
      4 C4         -1.4579   -4.5340   -0.4267 C.ar      1 <0>         0.0000
      5 C5         -0.3290   -2.4055   -0.6552 C.ar      1 <0>         0.0000
      6 C6         -1.4583   -3.1379   -0.2588 C.ar      1 <0>         0.0000
      7 C7         -3.8664   -2.2635   -0.6742 C.2       1 <0>         0.0000
      8 C8         -3.1950   -3.0441    1.5771 C.2       1 <0>         0.0000
      9 C9         -3.1686   -2.0873    6.3529 C.3       1 <0>         0.0000
     10 C10        -2.0248   -1.4778    5.5673 C.3       1 <0>         0.0000
     11 C11        -3.3855   -1.6335    4.9235 C.3       1 <0>         0.0000
     12 C12        -4.2239   -0.3941    4.6685 C.3       1 <0>         0.0000
     13 C13        -3.5411   -2.7287    3.9038 C.3       1 <0>         0.0000
     14 C14        -2.6649   -2.4010    0.2945 C.3       1 <0>         0.0000
     15 O1         -4.8325   -1.5983   -0.3822 O.2       1 <0>         0.0000
     16 O2         -3.6865   -4.1555    1.6296 O.2       1 <0>         0.0000
     17 O3         -3.7785   -2.8940   -1.8647 O.3       1 <0>         0.0000
     18 O4         -3.0350   -2.2288    2.6284 O.3       1 <0>         0.0000
     19 H1          1.6335   -4.9404   -1.8110 H         1 <0>         0.0000
     20 H2         -0.3595   -6.2561   -1.1068 H         1 <0>         0.0000
     21 H3          1.6468   -2.4680   -1.5112 H         1 <0>         0.0000
     22 H4         -2.3178   -5.1124   -0.1023 H         1 <0>         0.0000
     23 H5         -0.3188   -1.3253   -0.5294 H         1 <0>         0.0000
     24 H6         -3.1343   -3.1530    6.5631 H         1 <0>         0.0000
     25 H7         -3.6260   -1.4925    7.1383 H         1 <0>         0.0000
     26 H8         -1.7035   -0.4735    5.8276 H         1 <0>         0.0000
     27 H9         -1.2234   -2.1342    5.2398 H         1 <0>         0.0000
     28 H10        -5.2920   -0.6408    4.6502 H         1 <0>         0.0000
     29 H11        -3.9657    0.0609    3.7072 H         1 <0>         0.0000
     30 H12        -4.0655    0.3539    5.4516 H         1 <0>         0.0000
     31 H13        -4.5880   -3.0124    3.7636 H         1 <0>         0.0000
     32 H14        -2.9736   -3.6249    4.1689 H         1 <0>         0.0000
     33 H15        -2.3823   -1.3747    0.5343 H         1 <0>         0.0000
     34 H16        -2.9356   -3.3850   -1.9136 H         1 <0>         0.0000
@<TRIPOS>BOND
     1    1    3 ar
     2    1    2 ar
     3    1   19 1
     4    2    4 ar
     5    2   20 1
     6    3    5 ar
     7    3   21 1
     8    4    6 ar
     9    4   22 1
    10    5    6 ar
    11    5   23 1
    12    6   14 1
    13    7   14 1
    14    7   15 2
    15    7   17 1
    16    8   14 1
    17    8   16 2
    18    8   18 1
    19    9   10 1
    20    9   11 1
    21    9   24 1
    22    9   25 1
    23   10   11 1
    24   10   26 1
    25   10   27 1
    26   11   12 1
    27   11   13 1
    28   12   28 1
    29   12   29 1
    30   12   30 1
    31   13   18 1
    32   13   31 1
    33   13   32 1
    34   14   33 1
    35   17   34 1
