@<TRIPOS>MOLECULE
*****
   33    34     0     0     0
SMALL
NO_CHARGES

@<TRIPOS>ATOM
      1 C1         -1.9790   -6.5837    0.9469 C.ar      1 <0>         0.0000
      2 C2         -2.4389   -6.6894   -0.3697 C.ar      1 <0>         0.0000
      3 C3         -1.7641   -5.3115    1.4945 C.ar      1 <0>         0.0000
      4 C4         -2.6706   -5.5337   -1.1242 C.ar      1 <0>         0.0000
      5 C5         -1.9998   -4.1591    0.7421 C.ar      1 <0>         0.0000
      6 C6         -2.4519   -4.2545   -0.5872 C.ar      1 <0>         0.0000
      7 C7         -3.9981   -2.1419   -0.7998 C.2       1 <0>         0.0000
      8 C8         -1.6248   -2.0620   -1.5316 C.2       1 <0>         0.0000
      9 C9         -2.0841    1.1376   -0.5173 C.3       1 <0>         0.0000
     10 C10        -1.5091    2.2340   -1.3974 C.3       1 <0>         0.0000
     11 C11        -2.1328    0.9979   -2.0195 C.3       1 <0>         0.0000
     12 C12        -3.4855    1.1140   -2.7001 C.3       1 <0>         0.0000
     13 C13        -1.1864    0.0030   -2.6573 C.3       1 <0>         0.0000
     14 C14        -2.7463   -3.0411   -1.4154 C.3       1 <0>         0.0000
     15 O1         -3.8317   -1.7660    0.3777 O.co2     1 <0>         0.0000
     16 O2         -4.9175   -1.9568   -1.6246 O.co2     1 <0>         0.0000
     17 O3         -0.7181   -1.8653   -0.7385 O.2       1 <0>         0.0000
     18 O4         -1.7812   -1.3099   -2.6730 O.3       1 <0>         0.0000
     19 H1         -1.7954   -7.4781    1.5397 H         1 <0>         0.0000
     20 H2         -2.6181   -7.6689   -0.8101 H         1 <0>         0.0000
     21 H3         -1.4163   -5.2181    2.5221 H         1 <0>         0.0000
     22 H4         -3.0327   -5.6220   -2.1470 H         1 <0>         0.0000
     23 H5         -1.8601   -3.1743    1.1694 H         1 <0>         0.0000
     24 H6         -1.4000    0.4956    0.0255 H         1 <0>         0.0000
     25 H7         -3.0296    1.3087   -0.0128 H         1 <0>         0.0000
     26 H8         -2.0558    3.1703   -1.4868 H         1 <0>         0.0000
     27 H9         -0.4267    2.3443   -1.4311 H         1 <0>         0.0000
     28 H10        -4.0245    0.1630   -2.6463 H         1 <0>         0.0000
     29 H11        -3.3703    1.4006   -3.7550 H         1 <0>         0.0000
     30 H12        -4.1004    1.8767   -2.2091 H         1 <0>         0.0000
     31 H13        -0.2267   -0.0312   -2.1346 H         1 <0>         0.0000
     32 H14        -1.0164    0.2488   -3.7114 H         1 <0>         0.0000
     33 H15        -3.0731   -3.3207   -2.4162 H         1 <0>         0.0000
@<TRIPOS>BOND
     1    1    3 ar
     2    1    2 ar
     3    1   19 1
     4    2    4 ar
     5    2   20 1
     6    3    5 ar
     7    3   21 1
     8    4    6 ar
     9    4   22 1
    10    5    6 ar
    11    5   23 1
    12    6   14 1
    13    7   14 1
    14    7   15 1
    15    7   16 2
    16    8   14 1
    17    8   17 2
    18    8   18 1
    19    9   10 1
    20    9   11 1
    21    9   24 1
    22    9   25 1
    23   10   11 1
    24   10   26 1
    25   10   27 1
    26   11   12 1
    27   11   13 1
    28   12   28 1
    29   12   29 1
    30   12   30 1
    31   13   18 1
    32   13   31 1
    33   13   32 1
    34   14   33 1
