@<TRIPOS>MOLECULE
*****
   33    34     0     0     0
SMALL
NO_CHARGES

@<TRIPOS>ATOM
      1 C1         -7.7484   -1.7038    2.1092 C.ar      1 <0>         0.0000
      2 C2         -6.8522   -2.6804    2.5552 C.ar      1 <0>         0.0000
      3 C3         -7.3994   -0.9090    1.0087 C.ar      1 <0>         0.0000
      4 C4         -5.6208   -2.8481    1.9119 C.ar      1 <0>         0.0000
      5 C5         -6.1719   -1.0799    0.3662 C.ar      1 <0>         0.0000
      6 C6         -5.2570   -2.0499    0.8164 C.ar      1 <0>         0.0000
      7 C7         -4.2466   -2.9181   -1.3691 C.2       1 <0>         0.0000
      8 C8         -3.1119   -1.0552   -0.0663 C.2       1 <0>         0.0000
      9 C9          0.6111    0.0460   -2.7720 C.3       1 <0>         0.0000
     10 C10         0.1397   -1.3957   -2.8683 C.3       1 <0>         0.0000
     11 C11        -0.7592   -0.3510   -2.2542 C.3       1 <0>         0.0000
     12 C12        -1.9913    0.0848   -3.0288 C.3       1 <0>         0.0000
     13 C13        -0.9089   -0.3831   -0.7470 C.3       1 <0>         0.0000
     14 C14        -3.9529   -2.2846    0.1110 C.3       1 <0>         0.0000
     15 O1         -4.4411   -2.0644   -2.2679 O.co2     1 <0>         0.0000
     16 O2         -4.2575   -4.1642   -1.3825 O.co2     1 <0>         0.0000
     17 O3         -3.4657    0.1106   -0.0218 O.2       1 <0>         0.0000
     18 O4         -1.8156   -1.4214   -0.3313 O.3       1 <0>         0.0000
     19 H1         -8.7075   -1.5679    2.6058 H         1 <0>         0.0000
     20 H2         -7.1113   -3.3141    3.4017 H         1 <0>         0.0000
     21 H3         -8.0949   -0.1546    0.6445 H         1 <0>         0.0000
     22 H4         -4.9319   -3.6168    2.2559 H         1 <0>         0.0000
     23 H5         -5.9092   -0.4798   -0.4971 H         1 <0>         0.0000
     24 H6          1.3956    0.2802   -2.0550 H         1 <0>         0.0000
     25 H7          0.6511    0.6359   -3.6845 H         1 <0>         0.0000
     26 H8         -0.1390   -1.7828   -3.8442 H         1 <0>         0.0000
     27 H9          0.5946   -2.1305   -2.2093 H         1 <0>         0.0000
     28 H10        -2.3051    1.0888   -2.7191 H         1 <0>         0.0000
     29 H11        -2.8281   -0.6017   -2.8616 H         1 <0>         0.0000
     30 H12        -1.7753    0.1094   -4.1040 H         1 <0>         0.0000
     31 H13        -1.2648    0.5796   -0.3705 H         1 <0>         0.0000
     32 H14         0.0475   -0.6262   -0.2722 H         1 <0>         0.0000
     33 H15        -3.3633   -3.0366    0.6367 H         1 <0>         0.0000
@<TRIPOS>BOND
     1    1    3 ar
     2    1    2 ar
     3    1   19 1
     4    2    4 ar
     5    2   20 1
     6    3    5 ar
     7    3   21 1
     8    4    6 ar
     9    4   22 1
    10    5    6 ar
    11    5   23 1
    12    6   14 1
    13    7   14 1
    14    7   15 1
    15    7   16 2
    16    8   14 1
    17    8   17 2
    18    8   18 1
    19    9   10 1
    20    9   11 1
    21    9   24 1
    22    9   25 1
    23   10   11 1
    24   10   26 1
    25   10   27 1
    26   11   12 1
    27   11   13 1
    28   12   28 1
    29   12   29 1
    30   12   30 1
    31   13   18 1
    32   13   31 1
    33   13   32 1
    34   14   33 1
