@<TRIPOS>MOLECULE
*****
   59    61     0     0     0
SMALL
NO_CHARGES

@<TRIPOS>ATOM
      1 C1          2.0667    0.1986   -0.2929 C.ar      1 <0>         0.0000
      2 C2         -2.0908    1.3833    3.3709 C.ar      1 <0>         0.0000
      3 C3         -2.3284    3.3053    1.9264 C.ar      1 <0>         0.0000
      4 C4          2.6692   -0.5203   -1.3295 C.ar      1 <0>         0.0000
      5 C5         -2.7845    2.0469    4.3827 C.ar      1 <0>         0.0000
      6 C6         -3.0195    3.9842    2.9284 C.ar      1 <0>         0.0000
      7 C7          0.6076   -1.7628   -1.5949 C.ar      1 <0>         0.0000
      8 C8         -1.8370    2.0019    2.1325 C.ar      1 <0>         0.0000
      9 C9          0.7419   -0.0252    0.1014 C.ar      1 <0>         0.0000
     10 C10         0.0069   -1.0407   -0.5662 C.ar      1 <0>         0.0000
     11 C11         1.9308   -1.5110   -1.9882 C.ar      1 <0>         0.0000
     12 C12        -3.2331    3.3494    4.1548 C.ar      1 <0>         0.0000
     13 C13        -1.1120    1.2925    1.0480 C.2       1 <0>         0.0000
     14 C14         0.1264    0.7600    1.2068 C.2       1 <0>         0.0000
     15 C15        -1.4125   -1.3491   -0.1470 C.3       1 <0>         0.0000
     16 C16        -1.8284    1.1705   -0.2874 C.3       1 <0>         0.0000
     17 C17        -2.4143   -0.2367   -0.5214 C.3       1 <0>         0.0000
     18 C18         3.7441   -2.0645   -3.4463 C.3       1 <0>         0.0000
     19 C19        -2.7693    5.0841    6.3321 C.3       1 <0>         0.0000
     20 C20         0.9528    0.9059    2.4664 C.3       1 <0>         0.0000
     21 C21         1.1671   -0.4283    3.2023 C.3       1 <0>         0.0000
     22 C22         2.0272   -0.2804    4.4611 C.3       1 <0>         0.0000
     23 C23         2.2435   -1.6097    5.1926 C.3       1 <0>         0.0000
     24 C24         3.0980   -1.4599    6.4430 C.3       1 <0>         0.0000
     25 O1         -4.9528    5.2532    4.8373 O.2       1 <0>         0.0000
     26 O2         -4.6622    3.2294    6.3882 O.2       1 <0>         0.0000
     27 O3          3.2422   -2.7529    7.0436 O.3       1 <0>         0.0000
     28 O4          2.4055   -2.2848   -3.0128 O.3       1 <0>         0.0000
     29 S1         -4.1026    4.2249    5.4594 S.o2      1 <0>         0.0000
     30 H1          2.6493    0.9700    0.2032 H         1 <0>         0.0000
     31 H2         -1.7572    0.3628    3.5312 H         1 <0>         0.0000
     32 H3         -2.1542    3.7974    0.9735 H         1 <0>         0.0000
     33 H4          3.6937   -0.2990   -1.6065 H         1 <0>         0.0000
     34 H5         -3.0035    1.5578    5.3273 H         1 <0>         0.0000
     35 H6         -3.4067    4.9853    2.7631 H         1 <0>         0.0000
     36 H7          0.0605   -2.5475   -2.1109 H         1 <0>         0.0000
     37 H8         -1.7350   -2.2983   -0.5854 H         1 <0>         0.0000
     38 H9         -1.4315   -1.4793    0.9407 H         1 <0>         0.0000
     39 H10        -2.6341    1.9066   -0.3579 H         1 <0>         0.0000
     40 H11        -1.1209    1.3887   -1.0942 H         1 <0>         0.0000
     41 H12        -2.6956   -0.3219   -1.5777 H         1 <0>         0.0000
     42 H13        -3.3295   -0.3728    0.0668 H         1 <0>         0.0000
     43 H14         3.9158   -2.7727   -4.2580 H         1 <0>         0.0000
     44 H15         4.4624   -2.2558   -2.6395 H         1 <0>         0.0000
     45 H16         3.8799   -1.0424   -3.8213 H         1 <0>         0.0000
     46 H17        -3.2445    5.6386    7.1442 H         1 <0>         0.0000
     47 H18        -2.0724    4.3442    6.7279 H         1 <0>         0.0000
     48 H19        -2.2743    5.7658    5.6392 H         1 <0>         0.0000
     49 H20         0.4968    1.6327    3.1429 H         1 <0>         0.0000
     50 H21         1.9381    1.3122    2.2038 H         1 <0>         0.0000
     51 H22         0.1927   -0.8541    3.4744 H         1 <0>         0.0000
     52 H23         1.6331   -1.1478    2.5192 H         1 <0>         0.0000
     53 H24         2.9995    0.1501    4.1838 H         1 <0>         0.0000
     54 H25         1.5545    0.4426    5.1405 H         1 <0>         0.0000
     55 H26         1.2779   -2.0431    5.4802 H         1 <0>         0.0000
     56 H27         2.7268   -2.3321    4.5239 H         1 <0>         0.0000
     57 H28         2.6174   -0.7588    7.1430 H         1 <0>         0.0000
     58 H29         4.0823   -1.0447    6.1761 H         1 <0>         0.0000
     59 H30         3.7813   -2.6585    7.8438 H         1 <0>         0.0000
@<TRIPOS>BOND
     1    1    4 ar
     2    1    9 ar
     3    1   30 1
     4    2    5 ar
     5    2    8 ar
     6    2   31 1
     7    3    6 ar
     8    3    8 ar
     9    3   32 1
    10    4   11 ar
    11    4   33 1
    12    5   12 ar
    13    5   34 1
    14    6   12 ar
    15    6   35 1
    16    7   10 ar
    17    7   11 ar
    18    7   36 1
    19    8   13 1
    20    9   10 ar
    21    9   14 1
    22   10   15 1
    23   11   28 1
    24   12   29 1
    25   13   14 2
    26   13   16 1
    27   14   20 1
    28   15   17 1
    29   15   37 1
    30   15   38 1
    31   16   17 1
    32   16   39 1
    33   16   40 1
    34   17   41 1
    35   17   42 1
    36   18   28 1
    37   18   43 1
    38   18   44 1
    39   18   45 1
    40   19   29 1
    41   19   46 1
    42   19   47 1
    43   19   48 1
    44   20   21 1
    45   20   49 1
    46   20   50 1
    47   21   22 1
    48   21   51 1
    49   21   52 1
    50   22   23 1
    51   22   53 1
    52   22   54 1
    53   23   24 1
    54   23   55 1
    55   23   56 1
    56   24   27 1
    57   24   57 1
    58   24   58 1
    59   25   29 2
    60   26   29 2
    61   27   59 1
