@<TRIPOS>MOLECULE
*****
   54    56     0     0     0
SMALL
NO_CHARGES

@<TRIPOS>ATOM
      1 C1          6.6059   -0.8834   -0.3288 C.ar      1 <0>         0.0000
      2 C2          5.3438   -0.5133   -0.7802 C.ar      1 <0>         0.0000
      3 C3          7.3750    0.0047    0.4335 C.ar      1 <0>         0.0000
      4 C4          5.6099    1.7052    0.2374 C.ar      1 <0>         0.0000
      5 C5          4.8662    0.7676   -0.5028 C.ar      1 <0>         0.0000
      6 C6          6.8692    1.2889    0.7110 C.ar      1 <0>         0.0000
      7 C7         10.9955   -0.6374    0.0338 C.2       1 <0>         0.0000
      8 C8          9.5759   -2.7645    0.3325 C.2       1 <0>         0.0000
      9 C9          8.6865   -0.4887    0.9749 C.2       1 <0>         0.0000
     10 C10        11.9303   -1.0566    1.1560 C.3       1 <0>         0.0000
     11 C11        10.7657   -3.3112    1.0941 C.3       1 <0>         0.0000
     12 C12        11.4464   -2.2595    1.9799 C.3       1 <0>         0.0000
     13 C13         2.2677    5.9267    4.0072 C.3       1 <0>         0.0000
     14 C14         3.0173    6.3844    2.7481 C.3       1 <0>         0.0000
     15 C15         1.6883    4.5165    3.8254 C.3       1 <0>         0.0000
     16 C16         4.1031    5.3743    2.3436 C.3       1 <0>         0.0000
     17 C17         2.7739    3.5107    3.4161 C.3       1 <0>         0.0000
     18 C18         9.5920   -1.2602   -0.0118 C.3       1 <0>         0.0000
     19 C19         3.5077    3.9739    2.1612 C.3       1 <0>         0.0000
     20 C20         3.5918    2.1175   -2.6506 C.3       1 <0>         0.0000
     21 C21         5.0811    3.0816    0.5883 C.3       1 <0>         0.0000
     22 O1         11.3269    0.1538   -0.8302 O.2       1 <0>         0.0000
     23 O2          8.6452   -3.4604   -0.0341 O.2       1 <0>         0.0000
     24 O3          9.0305   -0.3042    2.1282 O.2       1 <0>         0.0000
     25 O4          2.6644   -0.1536   -1.6631 O.2       1 <0>         0.0000
     26 O5          2.4394    1.9579   -0.2527 O.2       1 <0>         0.0000
     27 O6          4.5150    2.9880    1.8849 O.3       1 <0>         0.0000
     28 S1          3.2104    1.1253   -1.1857 S.o2      1 <0>         0.0000
     29 Cl1         7.8436    2.4197    1.6238 Cl        1 <0>         0.0000
     30 H1          6.9861   -1.8794   -0.5379 H         1 <0>         0.0000
     31 H2          4.7248   -1.2078   -1.3377 H         1 <0>         0.0000
     32 H3         12.8970   -1.2588    0.6812 H         1 <0>         0.0000
     33 H4         12.0783   -0.1789    1.7942 H         1 <0>         0.0000
     34 H5         10.4315   -4.1854    1.6585 H         1 <0>         0.0000
     35 H6         11.4706   -3.6775    0.3322 H         1 <0>         0.0000
     36 H7         10.7470   -1.9231    2.7474 H         1 <0>         0.0000
     37 H8         12.2973   -2.7150    2.4946 H         1 <0>         0.0000
     38 H9          1.4691    6.6373    4.2508 H         1 <0>         0.0000
     39 H10         2.9612    5.9261    4.8594 H         1 <0>         0.0000
     40 H11         2.3008    6.4966    1.9225 H         1 <0>         0.0000
     41 H12         3.4668    7.3715    2.9069 H         1 <0>         0.0000
     42 H13         1.2017    4.1820    4.7487 H         1 <0>         0.0000
     43 H14         0.9074    4.5425    3.0531 H         1 <0>         0.0000
     44 H15         4.5958    5.7041    1.4209 H         1 <0>         0.0000
     45 H16         4.8769    5.3213    3.1203 H         1 <0>         0.0000
     46 H17         3.5068    3.3991    4.2255 H         1 <0>         0.0000
     47 H18         2.3435    2.5223    3.2276 H         1 <0>         0.0000
     48 H19         9.2096   -1.1399   -1.0254 H         1 <0>         0.0000
     49 H20         2.7985    3.9833    1.3204 H         1 <0>         0.0000
     50 H21         2.6305    2.3433   -3.1172 H         1 <0>         0.0000
     51 H22         4.0970    3.0368   -2.3527 H         1 <0>         0.0000
     52 H23         4.2140    1.5222   -3.3200 H         1 <0>         0.0000
     53 H24         5.9000    3.8093    0.5611 H         1 <0>         0.0000
     54 H25         4.3229    3.4038   -0.1296 H         1 <0>         0.0000
@<TRIPOS>BOND
     1    1    2 ar
     2    1    3 ar
     3    1   30 1
     4    2    5 ar
     5    2   31 1
     6    3    6 ar
     7    3    9 1
     8    4    5 ar
     9    4    6 ar
    10    4   21 1
    11    5   28 1
    12    6   29 1
    13    7   10 1
    14    7   18 1
    15    7   22 2
    16    8   11 1
    17    8   18 1
    18    8   23 2
    19    9   18 1
    20    9   24 2
    21   10   12 1
    22   10   32 1
    23   10   33 1
    24   11   12 1
    25   11   34 1
    26   11   35 1
    27   12   36 1
    28   12   37 1
    29   13   15 1
    30   13   14 1
    31   13   38 1
    32   13   39 1
    33   14   16 1
    34   14   40 1
    35   14   41 1
    36   15   17 1
    37   15   42 1
    38   15   43 1
    39   16   19 1
    40   16   44 1
    41   16   45 1
    42   17   19 1
    43   17   46 1
    44   17   47 1
    45   18   48 1
    46   19   27 1
    47   19   49 1
    48   20   28 1
    49   20   50 1
    50   20   51 1
    51   20   52 1
    52   21   27 1
    53   21   53 1
    54   21   54 1
    55   25   28 2
    56   26   28 2
