@<TRIPOS>MOLECULE
*****
   59    61     0     0     0
SMALL
NO_CHARGES

@<TRIPOS>ATOM
      1 C1          1.5827    1.3598    0.2746 C.ar      1 <0>         0.0000
      2 C2         -2.3001   -1.1327   -3.3033 C.ar      1 <0>         0.0000
      3 C3         -0.7331   -2.8714   -2.7040 C.ar      1 <0>         0.0000
      4 C4          1.9228    2.0113    1.4531 C.ar      1 <0>         0.0000
      5 C5         -2.7114   -1.8733   -4.4102 C.ar      1 <0>         0.0000
      6 C6         -1.1378   -3.6280   -3.8033 C.ar      1 <0>         0.0000
      7 C7          0.6344    0.3814    2.6959 C.ar      1 <0>         0.0000
      8 C8         -1.3000   -1.6118   -2.4357 C.ar      1 <0>         0.0000
      9 C9          0.7538    0.2219    0.2653 C.ar      1 <0>         0.0000
     10 C10         0.2868   -0.2712    1.5041 C.ar      1 <0>         0.0000
     11 C11         1.4461    1.5220    2.6788 C.ar      1 <0>         0.0000
     12 C12        -2.1305   -3.1226   -4.6446 C.ar      1 <0>         0.0000
     13 C13        -0.8847   -0.8197   -1.2504 C.2       1 <0>         0.0000
     14 C14         0.4020   -0.4604   -1.0102 C.2       1 <0>         0.0000
     15 C15        -0.5703   -1.5164    1.5531 C.3       1 <0>         0.0000
     16 C16        -1.9825   -0.4270   -0.2748 C.3       1 <0>         0.0000
     17 C17        -1.9926   -1.3031    0.9941 C.3       1 <0>         0.0000
     18 C18         1.3681    1.7605    5.0591 C.3       1 <0>         0.0000
     19 C19        -4.0514   -5.0609   -5.3679 C.3       1 <0>         0.0000
     20 C20         1.5408   -0.7123   -1.9749 C.3       1 <0>         0.0000
     21 C21         2.5763   -1.7191   -1.4438 C.3       1 <0>         0.0000
     22 C22         3.7630   -1.9006   -2.3948 C.3       1 <0>         0.0000
     23 C23         4.7787   -2.9330   -1.8946 C.3       1 <0>         0.0000
     24 C24         5.9743   -3.1191   -2.8302 C.3       1 <0>         0.0000
     25 O1         -3.2362   -3.1870   -7.0566 O.2       1 <0>         0.0000
     26 O2         -1.6042   -5.0519   -6.3878 O.2       1 <0>         0.0000
     27 O3          5.6064   -3.5627   -4.1416 O.3       1 <0>         0.0000
     28 O4          1.8302    2.2188    3.7927 O.3       1 <0>         0.0000
     29 S1         -2.6755   -4.1009   -6.0481 S.o2      1 <0>         0.0000
     30 H1          1.9550    1.7589   -0.6645 H         1 <0>         0.0000
     31 H2         -2.7373   -0.1539   -3.1251 H         1 <0>         0.0000
     32 H3          0.0300   -3.2604   -2.0373 H         1 <0>         0.0000
     33 H4          2.5513    2.8970    1.4499 H         1 <0>         0.0000
     34 H5         -3.4530   -1.4840   -5.1016 H         1 <0>         0.0000
     35 H6         -0.6847   -4.5909   -4.0199 H         1 <0>         0.0000
     36 H7          0.2671   -0.0232    3.6332 H         1 <0>         0.0000
     37 H8         -0.0816   -2.2965    0.9590 H         1 <0>         0.0000
     38 H9         -0.6306   -1.8915    2.5796 H         1 <0>         0.0000
     39 H10        -1.8354    0.6151    0.0274 H         1 <0>         0.0000
     40 H11        -2.9620   -0.4868   -0.7582 H         1 <0>         0.0000
     41 H12        -2.4385   -2.2822    0.7817 H         1 <0>         0.0000
     42 H13        -2.6269   -0.8175    1.7456 H         1 <0>         0.0000
     43 H14         1.7795    2.4522    5.7954 H         1 <0>         0.0000
     44 H15         1.7277    0.7463    5.2736 H         1 <0>         0.0000
     45 H16         0.2726    1.7788    5.1160 H         1 <0>         0.0000
     46 H17        -4.4248   -5.6803   -6.1863 H         1 <0>         0.0000
     47 H18        -3.6795   -5.6835   -4.5531 H         1 <0>         0.0000
     48 H19        -4.8250   -4.3740   -5.0220 H         1 <0>         0.0000
     49 H20         2.0582    0.2355   -2.1706 H         1 <0>         0.0000
     50 H21         1.1592   -1.0508   -2.9410 H         1 <0>         0.0000
     51 H22         2.9338   -1.3878   -0.4614 H         1 <0>         0.0000
     52 H23         2.0865   -2.6881   -1.2787 H         1 <0>         0.0000
     53 H24         3.4046   -2.1965   -3.3874 H         1 <0>         0.0000
     54 H25         4.2694   -0.9348   -2.5286 H         1 <0>         0.0000
     55 H26         5.1594   -2.6342   -0.9081 H         1 <0>         0.0000
     56 H27         4.2809   -3.9032   -1.7470 H         1 <0>         0.0000
     57 H28         6.7011   -3.8115   -2.3797 H         1 <0>         0.0000
     58 H29         6.4835   -2.1630   -2.9862 H         1 <0>         0.0000
     59 H30         5.1799   -4.4297   -4.0547 H         1 <0>         0.0000
@<TRIPOS>BOND
     1    1    4 ar
     2    1    9 ar
     3    1   30 1
     4    2    5 ar
     5    2    8 ar
     6    2   31 1
     7    3    6 ar
     8    3    8 ar
     9    3   32 1
    10    4   11 ar
    11    4   33 1
    12    5   12 ar
    13    5   34 1
    14    6   12 ar
    15    6   35 1
    16    7   10 ar
    17    7   11 ar
    18    7   36 1
    19    8   13 1
    20    9   10 ar
    21    9   14 1
    22   10   15 1
    23   11   28 1
    24   12   29 1
    25   13   14 2
    26   13   16 1
    27   14   20 1
    28   15   17 1
    29   15   37 1
    30   15   38 1
    31   16   17 1
    32   16   39 1
    33   16   40 1
    34   17   41 1
    35   17   42 1
    36   18   28 1
    37   18   43 1
    38   18   44 1
    39   18   45 1
    40   19   29 1
    41   19   46 1
    42   19   47 1
    43   19   48 1
    44   20   21 1
    45   20   49 1
    46   20   50 1
    47   21   22 1
    48   21   51 1
    49   21   52 1
    50   22   23 1
    51   22   53 1
    52   22   54 1
    53   23   24 1
    54   23   55 1
    55   23   56 1
    56   24   27 1
    57   24   57 1
    58   24   58 1
    59   25   29 2
    60   26   29 2
    61   27   59 1
