@<TRIPOS>MOLECULE
*****
   19    19     0     0     0
SMALL
NO_CHARGES

@<TRIPOS>ATOM
      1 C1          2.3017   -0.3727   -0.5327 C.2       1 <0>         0.0000
      2 C2          0.3528   -0.8826    0.9332 C.3       1 <0>         0.0000
      3 C3         -0.3505    0.4140    1.3214 C.3       1 <0>         0.0000
      4 C4          0.0443    0.5457   -1.0416 C.3       1 <0>         0.0000
      5 C5          0.8313   -0.6578   -0.5027 C.3       1 <0>         0.0000
      6 C6         -1.0020    0.8620    0.0233 C.3       1 <0>         0.0000
      7 O1          2.9315    0.1614    0.3682 O.2       1 <0>         0.0000
      8 O2          2.8459   -0.7868   -1.7030 O.3       1 <0>         0.0000
      9 O3         -2.1776    0.0915   -0.2010 O.3       1 <0>         0.0000
     10 H1          1.1572   -1.1291    1.6338 H         1 <0>         0.0000
     11 H2         -0.3679   -1.7095    0.9525 H         1 <0>         0.0000
     12 H3         -1.0730    0.2452    2.1257 H         1 <0>         0.0000
     13 H4          0.3871    1.1534    1.6539 H         1 <0>         0.0000
     14 H5          0.7011    1.4118   -1.1876 H         1 <0>         0.0000
     15 H6         -0.4145    0.3050   -2.0068 H         1 <0>         0.0000
     16 H7          0.6566   -1.5510   -1.1124 H         1 <0>         0.0000
     17 H8         -1.2810    1.9195    0.0410 H         1 <0>         0.0000
     18 H9          2.1765   -1.1905   -2.2957 H         1 <0>         0.0000
     19 H10        -2.5617    0.4064   -1.0345 H         1 <0>         0.0000
@<TRIPOS>BOND
     1    1    5 1
     2    1    7 2
     3    1    8 1
     4    2    3 1
     5    2    5 1
     6    2   10 1
     7    2   11 1
     8    3    6 1
     9    3   12 1
    10    3   13 1
    11    4    5 1
    12    4    6 1
    13    4   14 1
    14    4   15 1
    15    5   16 1
    16    6    9 1
    17    6   17 1
    18    8   18 1
    19    9   19 1
