@<TRIPOS>MOLECULE
*****
   20    20     0     0     0
SMALL
NO_CHARGES

@<TRIPOS>ATOM
      1 C1         -0.5947   -2.5394    0.4249 C.2       1 <0>         0.0000
      2 C2         -0.4441    1.2633   -0.0605 C.3       1 <0>         0.0000
      3 C3          0.0408    0.6034    1.1973 C.3       1 <0>         0.0000
      4 C4          0.0451   -0.1673   -0.1042 C.3       1 <0>         0.0000
      5 C5         -1.3522   -4.7367    0.8680 C.3       1 <0>         0.0000
      6 C6         -0.9835   -1.2521   -0.2753 C.3       1 <0>         0.0000
      7 N1          1.3432   -0.4500   -0.7528 N.3       1 <0>         0.0000
      8 O1          0.4483   -2.7098    1.0410 O.2       1 <0>         0.0000
      9 O2         -1.5861   -3.4641    0.2562 O.3       1 <0>         0.0000
     10 H1         -1.5072    1.4520   -0.1522 H         1 <0>         0.0000
     11 H2          0.1779    2.0389   -0.4924 H         1 <0>         0.0000
     12 H3          0.9869    0.9377    1.6073 H         1 <0>         0.0000
     13 H4         -0.6974    0.3496    1.9490 H         1 <0>         0.0000
     14 H5         -2.2008   -5.3970    0.6731 H         1 <0>         0.0000
     15 H6         -1.2187   -4.6053    1.9447 H         1 <0>         0.0000
     16 H7         -0.4469   -5.1752    0.4414 H         1 <0>         0.0000
     17 H8         -1.1190   -1.4773   -1.3433 H         1 <0>         0.0000
     18 H9         -1.9490   -0.9232    0.1364 H         1 <0>         0.0000
     19 H10         1.8465   -1.2374   -0.4303 H         1 <0>         0.0000
     20 H11         1.7291    0.2627   -1.3189 H         1 <0>         0.0000
@<TRIPOS>BOND
     1    1    6 1
     2    1    8 2
     3    1    9 1
     4    2    3 1
     5    2    4 1
     6    2   10 1
     7    2   11 1
     8    3    4 1
     9    3   12 1
    10    3   13 1
    11    4    6 1
    12    4    7 1
    13    5    9 1
    14    5   14 1
    15    5   15 1
    16    5   16 1
    17    6   17 1
    18    6   18 1
    19    7   19 1
    20    7   20 1
