@<TRIPOS>MOLECULE
*****
   47    49     0     0     0
SMALL
NO_CHARGES

@<TRIPOS>ATOM
      1 C1         -4.1890    5.4241    0.3932 C.ar      1 <0>         0.0000
      2 C2         -3.8720    4.1071    0.7257 C.ar      1 <0>         0.0000
      3 C3         -4.7275    4.7265   -1.8564 C.ar      1 <0>         0.0000
      4 C4         -4.6168    5.7338   -0.8979 C.ar      1 <0>         0.0000
      5 C5         -4.4105    3.4095   -1.5239 C.ar      1 <0>         0.0000
      6 C6         -3.9828    3.0998   -0.2328 C.ar      1 <0>         0.0000
      7 C7          0.2240   -0.4181    0.8395 C.2       1 <0>         0.0000
      8 C8          2.1167   -0.9962   -1.3368 C.3       1 <0>         0.0000
      9 C9          0.6200   -1.0564   -1.5789 C.3       1 <0>         0.0000
     10 C10         0.2045    1.3691   -0.9197 C.3       1 <0>         0.0000
     11 C11         2.4243   -1.3947    0.0927 C.3       1 <0>         0.0000
     12 C12        -1.0099    2.1200   -0.3938 C.3       1 <0>         0.0000
     13 C13        -1.6388   -0.1710   -0.8847 C.3       1 <0>         0.0000
     14 C14        -0.1185   -0.1063   -0.6326 C.3       1 <0>         0.0000
     15 C15         3.1190    0.0132    2.7503 C.3       1 <0>         0.0000
     16 C16         2.4015   -2.4012    2.7121 C.3       1 <0>         0.0000
     17 C17         1.9785   -0.9578    2.4816 C.3       1 <0>         0.0000
     18 N1          1.5409   -0.8093    1.0997 N.am      1 <0>         0.0000
     19 N2         -2.1499    1.2199   -0.6928 N.pl3     1 <0>         0.0000
     20 O1         -0.6099   -0.2311    1.7306 O.2       1 <0>         0.0000
     21 O2         -3.2822    1.4069    1.6156 O.2       1 <0>         0.0000
     22 O3         -4.6211    0.5773   -0.3508 O.2       1 <0>         0.0000
     23 F1         -4.9211    6.9984   -1.2178 F         1 <0>         0.0000
     24 F2         -4.5214    2.4502   -2.4534 F         1 <0>         0.0000
     25 S1         -3.5819    1.4319    0.1951 S.o2      1 <0>         0.0000
     26 H1         -4.1027    6.2087    1.1391 H         1 <0>         0.0000
     27 H2         -3.5417    3.8770    1.7351 H         1 <0>         0.0000
     28 H3         -5.0618    4.9681   -2.8608 H         1 <0>         0.0000
     29 H4          2.6331   -1.6736   -2.0264 H         1 <0>         0.0000
     30 H5          2.5022    0.0096   -1.5386 H         1 <0>         0.0000
     31 H6          0.4137   -0.8006   -2.6254 H         1 <0>         0.0000
     32 H7          0.2665   -2.0849   -1.4283 H         1 <0>         0.0000
     33 H8          0.2993    1.5416   -1.9993 H         1 <0>         0.0000
     34 H9          1.1218    1.7236   -0.4382 H         1 <0>         0.0000
     35 H10         2.3349   -2.4831    0.1958 H         1 <0>         0.0000
     36 H11         3.4585   -1.1227    0.3325 H         1 <0>         0.0000
     37 H12        -0.9277    2.2875    0.6853 H         1 <0>         0.0000
     38 H13        -1.1353    3.0816   -0.8987 H         1 <0>         0.0000
     39 H14        -1.8694   -0.4592   -1.9169 H         1 <0>         0.0000
     40 H15        -2.1415   -0.8776   -0.2161 H         1 <0>         0.0000
     41 H16         3.9788   -0.2082    2.1096 H         1 <0>         0.0000
     42 H17         2.8139    1.0494    2.5660 H         1 <0>         0.0000
     43 H18         3.4476   -0.0523    3.7933 H         1 <0>         0.0000
     44 H19         3.2496   -2.6644    2.0705 H         1 <0>         0.0000
     45 H20         1.5798   -3.0890    2.4869 H         1 <0>         0.0000
     46 H21         2.7105   -2.5670    3.7502 H         1 <0>         0.0000
     47 H22         1.1308   -0.7177    3.1326 H         1 <0>         0.0000
@<TRIPOS>BOND
     1    1    2 ar
     2    1    4 ar
     3    1   26 1
     4    2    6 ar
     5    2   27 1
     6    3    4 ar
     7    3    5 ar
     8    3   28 1
     9    4   23 1
    10    5    6 ar
    11    5   24 1
    12    6   25 1
    13    7   14 1
    14    7   18 am
    15    7   20 2
    16    8    9 1
    17    8   11 1
    18    8   29 1
    19    8   30 1
    20    9   14 1
    21    9   31 1
    22    9   32 1
    23   10   12 1
    24   10   14 1
    25   10   33 1
    26   10   34 1
    27   11   18 1
    28   11   35 1
    29   11   36 1
    30   12   19 1
    31   12   37 1
    32   12   38 1
    33   13   14 1
    34   13   19 1
    35   13   39 1
    36   13   40 1
    37   15   17 1
    38   15   41 1
    39   15   42 1
    40   15   43 1
    41   16   17 1
    42   16   44 1
    43   16   45 1
    44   16   46 1
    45   17   18 1
    46   17   47 1
    47   19   25 1
    48   21   25 2
    49   22   25 2
