@<TRIPOS>MOLECULE
*****
   16    16     0     0     0
SMALL
NO_CHARGES

@<TRIPOS>ATOM
      1 C1          4.7320    1.3070    0.7130 C.2       1 <0>         0.0000
      2 C2          3.4260    0.7840    0.7310 C.2       1 <0>         0.0000
      3 C3          5.5900    0.5710   -0.0560 C.2       1 <0>         0.0000
      4 C4          3.3200   -0.3470   -0.0320 C.2       1 <0>         0.0000
      5 C5          0.9200   -1.0160    0.1820 C.2       1 <0>         0.0000
      6 C6         -0.0810   -2.0480   -0.2600 C.3       1 <0>         0.0000
      7 N1          2.1930   -1.1760   -0.2840 N.am      1 <0>         0.0000
      8 O1          0.6190   -0.0950    0.9090 O.2       1 <0>         0.0000
      9 S1          4.8090   -0.7950   -0.7840 S.3       1 <0>         0.0000
     10 H1          5.0240    2.1790    1.2390 H         1 <0>         0.0000
     11 H2          2.6230    1.2150    1.2700 H         1 <0>         0.0000
     12 H3          6.6180    0.7610   -0.2260 H         1 <0>         0.0000
     13 H4         -1.0330   -1.7700    0.1710 H         1 <0>         0.0000
     14 H5          0.2620   -3.0030    0.1090 H         1 <0>         0.0000
     15 H6         -0.1080   -2.0230   -1.3400 H         1 <0>         0.0000
     16 H7          2.3500   -1.9870   -0.8920 H         1 <0>         0.0000
@<TRIPOS>BOND
     1    1    2 1
     2    1    3 2
     3    1   10 1
     4    2    4 2
     5    2   11 1
     6    3    9 1
     7    3   12 1
     8    4    7 1
     9    4    9 1
    10    5    6 1
    11    5    7 am
    12    5    8 2
    13    6   13 1
    14    6   14 1
    15    6   15 1
    16    7   16 1
