@<TRIPOS>MOLECULE
*****
   48    50     0     0     0
SMALL
NO_CHARGES

@<TRIPOS>ATOM
      1 C1          1.7025    8.3910   -7.9383 C.ar      1 <0>         0.0000
      2 C2          0.4653    7.7945   -8.1934 C.ar      1 <0>         0.0000
      3 C3          2.5115    7.8420   -6.9338 C.ar      1 <0>         0.0000
      4 C4          1.0845    4.6302   -1.4339 C.ar      1 <0>         0.0000
      5 C5          1.1353    2.2560   -1.8200 C.ar      1 <0>         0.0000
      6 C6          1.1661    4.8470   -2.8090 C.ar      1 <0>         0.0000
      7 C7          1.2198    2.4747   -3.2008 C.ar      1 <0>         0.0000
      8 C8          0.0444    6.6699   -7.4784 C.ar      1 <0>         0.0000
      9 C9          2.1012    6.7288   -6.2053 C.ar      1 <0>         0.0000
     10 C10         1.0676    3.3215   -0.9114 C.ar      1 <0>         0.0000
     11 C11         1.2406    3.7751   -3.7120 C.ar      1 <0>         0.0000
     12 C12         0.8549    6.1056   -6.4655 C.ar      1 <0>         0.0000
     13 C13         2.6512    4.9545    1.4111 C.2       1 <0>         0.0000
     14 C14        -0.4752    3.2069    2.6608 C.3       1 <0>         0.0000
     15 C15         0.7747    3.5677    3.4782 C.3       1 <0>         0.0000
     16 C16        -0.3308    3.6292    1.1909 C.3       1 <0>         0.0000
     17 C17         2.0383    2.9690    2.8430 C.3       1 <0>         0.0000
     18 C18         0.9597    3.0468    0.5755 C.3       1 <0>         0.0000
     19 C19         2.2257    3.4408    1.3852 C.3       1 <0>         0.0000
     20 C20        -0.9335    4.5366   -5.8415 C.3       1 <0>         0.0000
     21 C21         1.3745    4.0223   -5.2010 C.3       1 <0>         0.0000
     22 N1          0.4291    5.0146   -5.7188 N.pl3     1 <0>         0.0000
     23 O1          1.7396    5.8281    1.2739 O.co2     1 <0>         0.0000
     24 O2          3.8772    5.1361    1.6268 O.co2     1 <0>         0.0000
     25 H1          2.0256    9.2655   -8.4967 H         1 <0>         0.0000
     26 H2         -0.1848    8.1999   -8.9663 H         1 <0>         0.0000
     27 H3          3.4691    8.3001   -6.6962 H         1 <0>         0.0000
     28 H4          1.0683    5.4611   -0.7332 H         1 <0>         0.0000
     29 H5          1.1168    1.2352   -1.4409 H         1 <0>         0.0000
     30 H6          1.1673    5.8655   -3.1931 H         1 <0>         0.0000
     31 H7          1.2683    1.6255   -3.8824 H         1 <0>         0.0000
     32 H8         -0.9135    6.2227   -7.7201 H         1 <0>         0.0000
     33 H9          2.7307    6.3657   -5.3997 H         1 <0>         0.0000
     34 H10        -0.6374    2.1180    2.7134 H         1 <0>         0.0000
     35 H11        -1.3667    3.6772    3.0982 H         1 <0>         0.0000
     36 H12         0.8792    4.6574    3.5118 H         1 <0>         0.0000
     37 H13         0.6634    3.2118    4.5125 H         1 <0>         0.0000
     38 H14        -1.1996    3.2847    0.6123 H         1 <0>         0.0000
     39 H15        -0.2798    4.7181    1.1289 H         1 <0>         0.0000
     40 H16         2.9289    3.2479    3.4161 H         1 <0>         0.0000
     41 H17         1.9631    1.8686    2.8696 H         1 <0>         0.0000
     42 H18         0.8807    1.9511    0.6728 H         1 <0>         0.0000
     43 H19         3.0773    2.8969    0.9606 H         1 <0>         0.0000
     44 H20        -1.1342    3.8531   -5.0128 H         1 <0>         0.0000
     45 H21        -1.1194    3.9996   -6.7885 H         1 <0>         0.0000
     46 H22        -1.6429    5.3662   -5.7670 H         1 <0>         0.0000
     47 H23         2.3867    4.3507   -5.4432 H         1 <0>         0.0000
     48 H24         1.2298    3.0727   -5.7409 H         1 <0>         0.0000
@<TRIPOS>BOND
     1    1    3 ar
     2    1    2 ar
     3    1   25 1
     4    2    8 ar
     5    2   26 1
     6    3    9 ar
     7    3   27 1
     8    4    6 ar
     9    4   10 ar
    10    4   28 1
    11    5    7 ar
    12    5   10 ar
    13    5   29 1
    14    6   11 ar
    15    6   30 1
    16    7   11 ar
    17    7   31 1
    18    8   12 ar
    19    8   32 1
    20    9   12 ar
    21    9   33 1
    22   10   18 1
    23   11   21 1
    24   12   22 1
    25   13   19 1
    26   13   23 1
    27   13   24 2
    28   14   15 1
    29   14   16 1
    30   14   34 1
    31   14   35 1
    32   15   17 1
    33   15   36 1
    34   15   37 1
    35   16   18 1
    36   16   38 1
    37   16   39 1
    38   17   19 1
    39   17   40 1
    40   17   41 1
    41   18   19 1
    42   18   42 1
    43   19   43 1
    44   20   22 1
    45   20   44 1
    46   20   45 1
    47   20   46 1
    48   21   22 1
    49   21   47 1
    50   21   48 1
