@<TRIPOS>MOLECULE
*****
   45    46     0     0     0
SMALL
NO_CHARGES

@<TRIPOS>ATOM
      1 C1         -2.9747   -0.9563   -1.2663 C.2       1 <0>         0.0000
      2 C2         -1.9552    0.0143   -1.0325 C.2       1 <0>         0.0000
      3 C3         -0.9006   -0.5079   -0.3150 C.2       1 <0>         0.0000
      4 C4         -4.2205   -0.7876   -1.9742 C.2       1 <0>         0.0000
      5 C5         -2.6523   -2.1699   -0.7178 C.2       1 <0>         0.0000
      6 C6         -4.6781   -3.2366   -1.4491 C.2       1 <0>         0.0000
      7 C7         -2.0047    1.4235   -1.4976 C.3       1 <0>         0.0000
      8 C8         -4.7306   -4.1623   -6.7543 C.3       1 <0>         0.0000
      9 C9         -4.7814   -4.1318    3.0457 C.3       1 <0>         0.0000
     10 C10         0.3438    0.1580    0.1309 C.3       1 <0>         0.0000
     11 C11        -6.0927   -1.8314   -4.2491 C.3       1 <0>         0.0000
     12 C12        -6.2706   -1.8476   -2.7366 C.3       1 <0>         0.0000
     13 C13        -2.9944   -4.5651   -0.1463 C.3       1 <0>         0.0000
     14 C14        -5.4468   -3.1048   -4.7816 C.3       1 <0>         0.0000
     15 C15        -3.1840   -4.4776    1.3570 C.3       1 <0>         0.0000
     16 N1         -5.0011   -1.9672   -2.0254 N.am      1 <0>         0.0000
     17 N2         -3.4360   -3.3180   -0.7700 N.am      1 <0>         0.0000
     18 O1         -4.5488    0.2861   -2.4728 O.2       1 <0>         0.0000
     19 O2         -5.4396   -4.2070   -1.5375 O.2       1 <0>         0.0000
     20 O3          1.2272    0.3238   -0.9763 O.3       1 <0>         0.0000
     21 O4         -5.3068   -2.9915   -6.1916 O.3       1 <0>         0.0000
     22 O5         -4.5537   -4.2286    1.6465 O.3       1 <0>         0.0000
     23 S1         -1.1477   -2.1575    0.0701 S.3       1 <0>         0.0000
     24 H1         -2.4791    2.0656   -0.7420 H         1 <0>         0.0000
     25 H2         -0.9982    1.8189   -1.7000 H         1 <0>         0.0000
     26 H3         -2.5725    1.5208   -2.4351 H         1 <0>         0.0000
     27 H4         -4.6382   -4.0401   -7.8363 H         1 <0>         0.0000
     28 H5         -5.3614   -5.0254   -6.5269 H         1 <0>         0.0000
     29 H6         -3.7390   -4.3140   -6.3211 H         1 <0>         0.0000
     30 H7         -5.8412   -3.9407    3.2309 H         1 <0>         0.0000
     31 H8         -4.1763   -3.3209    3.4590 H         1 <0>         0.0000
     32 H9         -4.4955   -5.0745    3.5184 H         1 <0>         0.0000
     33 H10         0.1465    1.1528    0.5641 H         1 <0>         0.0000
     34 H11         0.8663   -0.4292    0.9043 H         1 <0>         0.0000
     35 H12        -7.0716   -1.7027   -4.7275 H         1 <0>         0.0000
     36 H13        -5.4933   -0.9646   -4.5551 H         1 <0>         0.0000
     37 H14        -6.7366   -0.9154   -2.4027 H         1 <0>         0.0000
     38 H15        -6.9089   -2.6803   -2.4243 H         1 <0>         0.0000
     39 H16        -1.9428   -4.7243   -0.4050 H         1 <0>         0.0000
     40 H17        -3.5926   -5.3832   -0.5587 H         1 <0>         0.0000
     41 H18        -4.4536   -3.2574   -4.3481 H         1 <0>         0.0000
     42 H19        -6.0694   -3.9783   -4.5635 H         1 <0>         0.0000
     43 H20        -2.5969   -3.6470    1.7610 H         1 <0>         0.0000
     44 H21        -2.8816   -5.4043    1.8555 H         1 <0>         0.0000
     45 H22         2.0209    0.7614   -0.6321 H         1 <0>         0.0000
@<TRIPOS>BOND
     1    1    2 1
     2    1    5 2
     3    1    4 1
     4    2    3 2
     5    2    7 1
     6    3   10 1
     7    3   23 1
     8    4   16 am
     9    4   18 2
    10    5   17 1
    11    5   23 1
    12    6   17 am
    13    6   16 am
    14    6   19 2
    15    7   24 1
    16    7   25 1
    17    7   26 1
    18    8   21 1
    19    8   27 1
    20    8   28 1
    21    8   29 1
    22    9   22 1
    23    9   30 1
    24    9   31 1
    25    9   32 1
    26   10   20 1
    27   10   33 1
    28   10   34 1
    29   11   12 1
    30   11   14 1
    31   11   35 1
    32   11   36 1
    33   12   16 1
    34   12   37 1
    35   12   38 1
    36   13   15 1
    37   13   17 1
    38   13   39 1
    39   13   40 1
    40   14   21 1
    41   14   41 1
    42   14   42 1
    43   15   22 1
    44   15   43 1
    45   15   44 1
    46   20   45 1
