@<TRIPOS>MOLECULE
*****
   49    51     0     0     0
SMALL
NO_CHARGES

@<TRIPOS>ATOM
      1 C1          0.4094   -1.2890    0.0570 C.ar      1 <0>         0.0000
      2 C2          0.6791   -1.8545    1.3099 C.ar      1 <0>         0.0000
      3 C3         -0.4056   -3.9139    0.6585 C.ar      1 <0>         0.0000
      4 C4         -5.4945   -5.3485    0.2876 C.ar      1 <0>         0.0000
      5 C5         -4.9501   -6.5677    0.7421 C.ar      1 <0>         0.0000
      6 C6         -0.2717   -2.0447   -0.8967 C.ar      1 <0>         0.0000
      7 C7         -0.6726   -3.3509   -0.5881 C.ar      1 <0>         0.0000
      8 C8          0.2785   -3.1636    1.6282 C.ar      1 <0>         0.0000
      9 C9         -3.6073   -6.8175    0.3405 C.ar      1 <0>         0.0000
     10 C10        -3.5662   -4.7934   -0.7611 C.ar      1 <0>         0.0000
     11 C11        -5.7546   -7.4947    1.5783 C.2       1 <0>         0.0000
     12 C12        -0.6896   -1.6811   -2.3060 C.3       1 <0>         0.0000
     13 C13        -1.4403   -3.9569   -1.7516 C.3       1 <0>         0.0000
     14 C14        -1.0039   -3.0596   -2.9437 C.3       1 <0>         0.0000
     15 C15         0.5547   -3.7444    2.9970 C.3       1 <0>         0.0000
     16 C16        -1.9540   -3.0261   -4.1387 C.3       1 <0>         0.0000
     17 C17        -2.1536   -7.8575    2.1091 C.3       1 <0>         0.0000
     18 C18        -7.9622   -8.2467    2.6066 C.3       1 <0>         0.0000
     19 C19        -2.8101   -8.0375    0.7270 C.3       1 <0>         0.0000
     20 C20        -7.2362   -7.1751    1.7940 C.3       1 <0>         0.0000
     21 N1         -4.8417   -4.4565   -0.4445 N.ar      1 <0>         0.0000
     22 N2         -2.9382   -5.9310   -0.4031 N.ar      1 <0>         0.0000
     23 N3         -2.8896   -3.8981   -1.5262 N.pl3     1 <0>         0.0000
     24 O1         -5.2696   -8.4990    2.0977 O.2       1 <0>         0.0000
     25 H1          0.7384   -0.2759   -0.1646 H         1 <0>         0.0000
     26 H2          1.2178   -1.2706    2.0536 H         1 <0>         0.0000
     27 H3         -0.7251   -4.9304    0.8731 H         1 <0>         0.0000
     28 H4         -6.5163   -5.0748    0.5396 H         1 <0>         0.0000
     29 H5         -1.5816   -1.0378   -2.2953 H         1 <0>         0.0000
     30 H6          0.0826   -1.1376   -2.8602 H         1 <0>         0.0000
     31 H7         -1.1960   -5.0058   -1.9199 H         1 <0>         0.0000
     32 H8         -0.0460   -3.4770   -3.2756 H         1 <0>         0.0000
     33 H9         -0.2717   -3.5326    3.6866 H         1 <0>         0.0000
     34 H10         0.6715   -4.8314    2.9530 H         1 <0>         0.0000
     35 H11         1.4639   -3.3230    3.4362 H         1 <0>         0.0000
     36 H12        -2.9184   -2.5736   -3.8859 H         1 <0>         0.0000
     37 H13        -2.1526   -4.0347   -4.5155 H         1 <0>         0.0000
     38 H14        -1.5196   -2.4391   -4.9552 H         1 <0>         0.0000
     39 H15        -1.5066   -6.9739    2.1208 H         1 <0>         0.0000
     40 H16        -1.5409   -8.7318    2.3509 H         1 <0>         0.0000
     41 H17        -2.9129   -7.7500    2.8871 H         1 <0>         0.0000
     42 H18        -7.9171   -9.2175    2.1062 H         1 <0>         0.0000
     43 H19        -7.5065   -8.3681    3.5925 H         1 <0>         0.0000
     44 H20        -9.0137   -7.9725    2.7395 H         1 <0>         0.0000
     45 H21        -3.4473   -8.9217    0.7481 H         1 <0>         0.0000
     46 H22        -2.0345   -8.1651   -0.0333 H         1 <0>         0.0000
     47 H23        -7.3125   -6.2032    2.2986 H         1 <0>         0.0000
     48 H24        -7.7169   -7.0413    0.8170 H         1 <0>         0.0000
     49 H25        -3.3501   -2.9984   -1.5976 H         1 <0>         0.0000
@<TRIPOS>BOND
     1    1    2 ar
     2    1    6 ar
     3    1   25 1
     4    2    8 ar
     5    2   26 1
     6    3    7 ar
     7    3    8 ar
     8    3   27 1
     9    4    5 ar
    10    4   21 ar
    11    4   28 1
    12    5    9 ar
    13    5   11 1
    14    6    7 ar
    15    6   12 1
    16    7   13 1
    17    8   15 1
    18    9   19 1
    19    9   22 ar
    20   10   21 ar
    21   10   22 ar
    22   10   23 1
    23   11   20 1
    24   11   24 2
    25   12   14 1
    26   12   29 1
    27   12   30 1
    28   13   14 1
    29   13   23 1
    30   13   31 1
    31   14   16 1
    32   14   32 1
    33   15   33 1
    34   15   34 1
    35   15   35 1
    36   16   36 1
    37   16   37 1
    38   16   38 1
    39   17   19 1
    40   17   39 1
    41   17   40 1
    42   17   41 1
    43   18   20 1
    44   18   42 1
    45   18   43 1
    46   18   44 1
    47   19   45 1
    48   19   46 1
    49   20   47 1
    50   20   48 1
    51   23   49 1
