@<TRIPOS>MOLECULE
*****
   65    69     0     0     0
SMALL
NO_CHARGES

@<TRIPOS>ATOM
      1 C1         -6.7686   -7.4702    9.3432 C.ar      1 <0>         0.0000
      2 C2         -6.9503   -6.1342    8.9050 C.ar      1 <0>         0.0000
      3 C3          6.8296    2.6262   -0.7932 C.ar      1 <0>         0.0000
      4 C4          7.6740    1.5020   -0.7278 C.ar      1 <0>         0.0000
      5 C5         -5.6112   -8.1524    9.0242 C.ar      1 <0>         0.0000
      6 C6         -5.9733   -5.5068    8.1575 C.ar      1 <0>         0.0000
      7 C7          5.5523    2.5933   -0.2294 C.ar      1 <0>         0.0000
      8 C8          2.6979    1.7013    1.3953 C.ar      1 <0>         0.0000
      9 C9          7.2621    0.3207   -0.1033 C.ar      1 <0>         0.0000
     10 C10         1.7120    1.0358    2.1127 C.ar      1 <0>         0.0000
     11 C11        -3.3895   -8.2080    7.9023 C.ar      1 <0>         0.0000
     12 C12        -3.7479   -5.5573    7.0483 C.ar      1 <0>         0.0000
     13 C13         3.0961   -0.9821    2.2629 C.ar      1 <0>         0.0000
     14 C14        -4.5904   -7.5322    8.2559 C.ar      1 <0>         0.0000
     15 C15        -4.7724   -6.1843    7.8135 C.ar      1 <0>         0.0000
     16 C16         5.1179    1.4231    0.4061 C.ar      1 <0>         0.0000
     17 C17         3.9008    1.0441    1.0971 C.ar      1 <0>         0.0000
     18 C18         5.9806    0.2929    0.4538 C.ar      1 <0>         0.0000
     19 C19         4.0757   -0.2942    1.5325 C.ar      1 <0>         0.0000
     20 C20         1.9083   -0.2964    2.5441 C.ar      1 <0>         0.0000
     21 C21        -2.4108   -7.5911    7.1616 C.ar      1 <0>         0.0000
     22 C22        -2.5866   -6.2326    6.7300 C.ar      1 <0>         0.0000
     23 C23         7.3057   -3.0729    3.3979 C.2       1 <0>         0.0000
     24 C24        -1.0586   -8.6372    5.5188 C.3       1 <0>         0.0000
     25 C25         6.6642   -1.7874    2.9024 C.3       1 <0>         0.0000
     26 C26        -0.3352   -2.5489    4.3879 C.3       1 <0>         0.0000
     27 C27        -0.3370   -3.9997    4.8812 C.3       1 <0>         0.0000
     28 C28         5.9530   -1.9760    1.5551 C.3       1 <0>         0.0000
     29 C29         0.9622   -2.1950    3.6755 C.3       1 <0>         0.0000
     30 C30        -1.6295   -4.3451    5.6060 C.3       1 <0>         0.0000
     31 N1          5.3233   -0.7497    1.1121 N.pl3     1 <0>         0.0000
     32 O1          7.2312   -4.1374    2.8292 O.2       1 <0>         0.0000
     33 O2          7.9972   -2.9707    4.5706 O.3       1 <0>         0.0000
     34 O3         -1.2390   -8.2602    6.8918 O.3       1 <0>         0.0000
     35 O4          0.8619   -0.8381    3.2425 O.3       1 <0>         0.0000
     36 O5         -1.5406   -5.7084    6.0241 O.3       1 <0>         0.0000
     37 H1         -7.5436   -7.9544    9.9316 H         1 <0>         0.0000
     38 H2         -7.8638   -5.6036    9.1611 H         1 <0>         0.0000
     39 H3          7.1789    3.5287   -1.2872 H         1 <0>         0.0000
     40 H4          8.6647    1.5499   -1.1718 H         1 <0>         0.0000
     41 H5         -5.4676   -9.1772    9.3591 H         1 <0>         0.0000
     42 H6         -6.1143   -4.4811    7.8233 H         1 <0>         0.0000
     43 H7          4.9062    3.4662   -0.2810 H         1 <0>         0.0000
     44 H8          2.5325    2.7258    1.0721 H         1 <0>         0.0000
     45 H9          7.9221   -0.5416   -0.0650 H         1 <0>         0.0000
     46 H10         0.7712    1.5176    2.3598 H         1 <0>         0.0000
     47 H11        -3.2222   -9.2325    8.2242 H         1 <0>         0.0000
     48 H12        -3.8986   -4.5310    6.7318 H         1 <0>         0.0000
     49 H13         3.2526   -2.0042    2.5857 H         1 <0>         0.0000
     50 H14        -0.1096   -9.1751    5.4748 H         1 <0>         0.0000
     51 H15        -1.0144   -7.7589    4.8681 H         1 <0>         0.0000
     52 H16        -1.8710   -9.2999    5.1947 H         1 <0>         0.0000
     53 H17         7.4294   -1.0070    2.8102 H         1 <0>         0.0000
     54 H18         5.9459   -1.4327    3.6520 H         1 <0>         0.0000
     55 H19        -1.1697   -2.3793    3.6977 H         1 <0>         0.0000
     56 H20        -0.4722   -1.8593    5.2290 H         1 <0>         0.0000
     57 H21         0.5034   -4.1749    5.5627 H         1 <0>         0.0000
     58 H22        -0.2118   -4.6885    4.0374 H         1 <0>         0.0000
     59 H23         5.2004   -2.7624    1.6340 H         1 <0>         0.0000
     60 H24         6.6639   -2.3103    0.7973 H         1 <0>         0.0000
     61 H25         1.8191   -2.3104    4.3541 H         1 <0>         0.0000
     62 H26         1.1208   -2.8529    2.8097 H         1 <0>         0.0000
     63 H27        -2.4952   -4.2137    4.9423 H         1 <0>         0.0000
     64 H28        -1.7691   -3.6975    6.4821 H         1 <0>         0.0000
     65 H29         7.9672   -2.0551    4.8975 H         1 <0>         0.0000
@<TRIPOS>BOND
     1    1    2 ar
     2    1    5 ar
     3    1   37 1
     4    2    6 ar
     5    2   38 1
     6    3    4 ar
     7    3    7 ar
     8    3   39 1
     9    4    9 ar
    10    4   40 1
    11    5   14 ar
    12    5   41 1
    13    6   15 ar
    14    6   42 1
    15    7   16 ar
    16    7   43 1
    17    8   10 ar
    18    8   17 ar
    19    8   44 1
    20    9   18 ar
    21    9   45 1
    22   10   20 ar
    23   10   46 1
    24   11   14 ar
    25   11   21 ar
    26   11   47 1
    27   12   15 ar
    28   12   22 ar
    29   12   48 1
    30   13   19 ar
    31   13   20 ar
    32   13   49 1
    33   14   15 ar
    34   16   17 1
    35   16   18 ar
    36   17   19 ar
    37   18   31 1
    38   19   31 1
    39   20   35 1
    40   21   22 ar
    41   21   34 1
    42   22   36 1
    43   23   25 1
    44   23   32 2
    45   23   33 1
    46   24   34 1
    47   24   50 1
    48   24   51 1
    49   24   52 1
    50   25   28 1
    51   25   53 1
    52   25   54 1
    53   26   27 1
    54   26   29 1
    55   26   55 1
    56   26   56 1
    57   27   30 1
    58   27   57 1
    59   27   58 1
    60   28   31 1
    61   28   59 1
    62   28   60 1
    63   29   35 1
    64   29   61 1
    65   29   62 1
    66   30   36 1
    67   30   63 1
    68   30   64 1
    69   33   65 1
