@<TRIPOS>MOLECULE
*****
   21    21     0     0     0
SMALL
NO_CHARGES

@<TRIPOS>ATOM
      1 C1          2.1502   -0.4253   -0.2440 C.ar      1 <0>         0.0000
      2 C2          1.2843    0.3214    0.5551 C.ar      1 <0>         0.0000
      3 C3          2.5792   -1.6967    0.1574 C.ar      1 <0>         0.0000
      4 C4          1.2571   -1.4627    2.1902 C.ar      1 <0>         0.0000
      5 C5          0.8333   -0.1918    1.7816 C.ar      1 <0>         0.0000
      6 C6          2.1216   -2.1971    1.3745 C.ar      1 <0>         0.0000
      7 C7         -1.4785    0.7297    1.9497 C.2       1 <0>         0.0000
      8 C8         -0.1324    0.6131    2.6318 C.3       1 <0>         0.0000
      9 N1         -1.9215    1.7586    1.3139 N.2       1 <0>         0.0000
     10 N2         -2.3140   -0.3843    2.0598 N.pl3     1 <0>         0.0000
     11 O1         -0.9910    2.8431    1.3581 O.3       1 <0>         0.0000
     12 Br1         2.6883   -3.9396    1.9489 Br        1 <0>         0.0000
     13 H1          2.4993   -0.0219   -1.1909 H         1 <0>         0.0000
     14 H2          0.9474    1.3041    0.2364 H         1 <0>         0.0000
     15 H3          3.2521   -2.2804   -0.4622 H         1 <0>         0.0000
     16 H4          0.9242   -1.8738    3.1389 H         1 <0>         0.0000
     17 H5         -0.2790    0.1297    3.6018 H         1 <0>         0.0000
     18 H6          0.2596    1.6163    2.8036 H         1 <0>         0.0000
     19 H7         -1.8166   -1.2649    1.9603 H         1 <0>         0.0000
     20 H8         -3.1092   -0.3353    1.4288 H         1 <0>         0.0000
     21 H9         -1.4960    3.5502    0.9268 H         1 <0>         0.0000
@<TRIPOS>BOND
     1    1    2 ar
     2    1    3 ar
     3    1   13 1
     4    2    5 ar
     5    2   14 1
     6    3    6 ar
     7    3   15 1
     8    4    5 ar
     9    4    6 ar
    10    4   16 1
    11    5    8 1
    12    6   12 1
    13    7    8 1
    14    7    9 2
    15    7   10 1
    16    8   17 1
    17    8   18 1
    18    9   11 1
    19   10   19 1
    20   10   20 1
    21   11   21 1
