@<TRIPOS>MOLECULE
*****
   42    42     0     0     0
SMALL
NO_CHARGES

@<TRIPOS>ATOM
      1 C1         -1.2164   -0.5095    0.7625 C.3       1 <0>         0.0000
      2 C2         -1.4695   -2.0319    0.7094 C.3       1 <0>         0.0000
      3 C3         -0.0913   -0.3587    1.7815 C.3       1 <0>         0.0000
      4 C4         -0.1512   -2.7199    1.1553 C.3       1 <0>         0.0000
      5 C5         -0.3469   -3.6281    2.3732 C.3       1 <0>         0.0000
      6 C6          0.9159   -4.3878    2.8595 C.3       1 <0>         0.0000
      7 C7          3.6039   -1.0783    8.0657 C.3       1 <0>         0.0000
      8 C8          2.8058   -1.0647    6.7540 C.3       1 <0>         0.0000
      9 C9          3.8923    0.3446    8.5568 C.3       1 <0>         0.0000
     10 C10         1.2209   -4.2369    4.3556 C.3       1 <0>         0.0000
     11 C11         2.5278   -2.4962    6.2882 C.3       1 <0>         0.0000
     12 C12         4.6809    0.3617    9.8507 C.3       1 <0>         0.0000
     13 N1          0.7901   -1.5437    1.4636 N.4       1 <0>         0.0000
     14 O1          0.2819   -1.7846    4.9624 O.2       1 <0>         0.0000
     15 O2          2.4342   -1.9736    3.6553 O.2       1 <0>         0.0000
     16 F1          4.9195    1.6264   10.2626 F         1 <0>         0.0000
     17 F2          5.8826   -0.2551    9.7138 F         1 <0>         0.0000
     18 F3          4.0186   -0.2739   10.8506 F         1 <0>         0.0000
     19 S1          1.5635   -2.4902    4.7582 S.o2      1 <0>         0.0000
     20 H1         -0.8949   -0.1285   -0.2123 H         1 <0>         0.0000
     21 H2         -2.1045    0.0516    1.0577 H         1 <0>         0.0000
     22 H3         -2.2687   -2.3077    1.4015 H         1 <0>         0.0000
     23 H4         -1.7720   -2.3617   -0.2860 H         1 <0>         0.0000
     24 H5          0.4951    0.5576    1.7022 H         1 <0>         0.0000
     25 H6         -0.4246   -0.4854    2.8134 H         1 <0>         0.0000
     26 H7          0.3200   -3.2780    0.3433 H         1 <0>         0.0000
     27 H8         -0.7892   -3.0402    3.1818 H         1 <0>         0.0000
     28 H9         -1.1150   -4.3494    2.0790 H         1 <0>         0.0000
     29 H10         1.8049   -4.0866    2.2972 H         1 <0>         0.0000
     30 H11         0.7977   -5.4589    2.6736 H         1 <0>         0.0000
     31 H12         4.5493   -1.6114    7.9201 H         1 <0>         0.0000
     32 H13         3.0437   -1.6211    8.8344 H         1 <0>         0.0000
     33 H14         1.8565   -0.5394    6.8965 H         1 <0>         0.0000
     34 H15         3.3668   -0.5334    5.9787 H         1 <0>         0.0000
     35 H16         4.4732    0.9057    7.8189 H         1 <0>         0.0000
     36 H17         2.9639    0.8941    8.7381 H         1 <0>         0.0000
     37 H18         0.3851   -4.5375    4.9925 H         1 <0>         0.0000
     38 H19         2.1126   -4.8077    4.6298 H         1 <0>         0.0000
     39 H20         3.4465   -3.0468    6.0670 H         1 <0>         0.0000
     40 H21         1.9291   -3.0549    7.0148 H         1 <0>         0.0000
     41 H22         1.3447   -1.3308    0.6298 H         1 <0>         0.0000
     42 H23         1.4698   -1.7318    2.2400 H         1 <0>         0.0000
@<TRIPOS>BOND
     1    1    2 1
     2    1    3 1
     3    1   20 1
     4    1   21 1
     5    2    4 1
     6    2   22 1
     7    2   23 1
     8    3   13 1
     9    3   24 1
    10    3   25 1
    11    4    5 1
    12    4   13 1
    13    4   26 1
    14    5    6 1
    15    5   27 1
    16    5   28 1
    17    6   10 1
    18    6   29 1
    19    6   30 1
    20    7    8 1
    21    7    9 1
    22    7   31 1
    23    7   32 1
    24    8   11 1
    25    8   33 1
    26    8   34 1
    27    9   12 1
    28    9   35 1
    29    9   36 1
    30   10   19 1
    31   10   37 1
    32   10   38 1
    33   11   19 1
    34   11   39 1
    35   11   40 1
    36   12   16 1
    37   12   17 1
    38   12   18 1
    39   13   41 1
    40   13   42 1
    41   14   19 2
    42   15   19 2
