@<TRIPOS>MOLECULE
*****
   34    36     0     0     0
SMALL
NO_CHARGES

@<TRIPOS>ATOM
      1 C1         -3.6496   -1.5113   -0.5617 C.ar      1 <0>         0.0000
      2 C2         -2.5206   -2.4744    1.3238 C.ar      1 <0>         0.0000
      3 C3         -2.4713   -0.8053   -0.8461 C.ar      1 <0>         0.0000
      4 C4         -3.6779   -2.3583    0.5410 C.ar      1 <0>         0.0000
      5 C5         -1.3599   -0.9526    0.0137 C.ar      1 <0>         0.0000
      6 C6         -3.0810    0.1342   -5.3945 C.3       1 <0>         0.0000
      7 C7         -1.9253   -0.7338   -5.8483 C.3       1 <0>         0.0000
      8 C8         -0.0583    1.3077   -0.1241 C.3       1 <0>         0.0000
      9 C9          0.5020    0.4951    1.0207 C.3       1 <0>         0.0000
     10 C10        -1.8454    0.0148   -4.5455 C.3       1 <0>         0.0000
     11 C11        -0.0610   -0.2154   -0.1853 C.3       1 <0>         0.0000
     12 C12         0.9403   -0.9149   -1.0951 C.3       1 <0>         0.0000
     13 C13        -2.4227    0.0619   -2.0713 C.3       1 <0>         0.0000
     14 N1         -1.4082   -1.7864    1.0653 N.ar      1 <0>         0.0000
     15 N2         -1.9306   -0.7500   -3.2726 N.4       1 <0>         0.0000
     16 Br1        -5.2473   -3.3295    0.9932 Br        1 <0>         0.0000
     17 H1         -4.5371   -1.3885   -1.1788 H         1 <0>         0.0000
     18 H2         -2.5020   -3.1358    2.1873 H         1 <0>         0.0000
     19 H3         -3.2535    1.0861   -5.8850 H         1 <0>         0.0000
     20 H4         -3.9859   -0.3696   -5.0637 H         1 <0>         0.0000
     21 H5         -2.0633   -1.8114   -5.8200 H         1 <0>         0.0000
     22 H6         -1.2860   -0.3866   -6.6529 H         1 <0>         0.0000
     23 H7         -0.9979    1.8237    0.0574 H         1 <0>         0.0000
     24 H8          0.6357    1.8437   -0.7667 H         1 <0>         0.0000
     25 H9          1.5783    0.4725    1.1591 H         1 <0>         0.0000
     26 H10        -0.0717    0.4506    1.9400 H         1 <0>         0.0000
     27 H11        -1.1716    0.8586   -4.4433 H         1 <0>         0.0000
     28 H12         1.8977   -0.3868   -1.0978 H         1 <0>         0.0000
     29 H13         0.6169   -0.9574   -2.1479 H         1 <0>         0.0000
     30 H14         1.1193   -1.9409   -0.7601 H         1 <0>         0.0000
     31 H15        -3.4039    0.4448   -2.3566 H         1 <0>         0.0000
     32 H16        -1.7249    0.8915   -1.9708 H         1 <0>         0.0000
     33 H17        -2.5467   -1.5632   -3.3897 H         1 <0>         0.0000
     34 H18        -1.0061   -1.1348   -3.0351 H         1 <0>         0.0000
@<TRIPOS>BOND
     1    1    3 ar
     2    1    4 ar
     3    1   17 1
     4    2    4 ar
     5    2   14 ar
     6    2   18 1
     7    3    5 ar
     8    3   13 1
     9    4   16 1
    10    5   11 1
    11    5   14 ar
    12    6    7 1
    13    6   10 1
    14    6   19 1
    15    6   20 1
    16    7   10 1
    17    7   21 1
    18    7   22 1
    19    8    9 1
    20    8   11 1
    21    8   23 1
    22    8   24 1
    23    9   11 1
    24    9   25 1
    25    9   26 1
    26   10   15 1
    27   10   27 1
    28   11   12 1
    29   12   28 1
    30   12   29 1
    31   12   30 1
    32   13   15 1
    33   13   31 1
    34   13   32 1
    35   15   33 1
    36   15   34 1
