@<TRIPOS>MOLECULE
*****
   30    30     0     0     0
SMALL
NO_CHARGES

@<TRIPOS>ATOM
      1 C1          0.0260    0.6798   -0.5526 C.2       1 <0>         0.0000
      2 C2          0.1283   -0.5450    0.0384 C.2       1 <0>         0.0000
      3 C3          1.2105    1.4310   -0.9160 C.2       1 <0>         0.0000
      4 C4         -2.2555   -0.4630   -0.3808 C.3       1 <0>         0.0000
      5 C5         -1.1757   -1.1814    0.4511 C.3       1 <0>         0.0000
      6 C6         -2.4964   -3.3436    0.7968 C.3       1 <0>         0.0000
      7 C7          2.7503    5.6700   -2.7974 C.3       1 <0>         0.0000
      8 C8         -1.1950   -2.7090    0.2951 C.3       1 <0>         0.0000
      9 C9          1.5969    4.7543   -2.3715 C.3       1 <0>         0.0000
     10 C10         2.1104    3.4385   -1.8107 C.3       1 <0>         0.0000
     11 O1          2.3611    0.9930   -0.7509 O.2       1 <0>         0.0000
     12 O2          1.2704   -1.1835    0.3208 O.3       1 <0>         0.0000
     13 O3          0.9560    2.6419   -1.4375 O.3       1 <0>         0.0000
     14 S1         -1.6585    1.2523   -0.7288 S.3       1 <0>         0.0000
     15 H1         -2.3972   -0.9781   -1.3368 H         1 <0>         0.0000
     16 H2         -3.2144   -0.4016    0.1350 H         1 <0>         0.0000
     17 H3         -1.3180   -0.9350    1.5156 H         1 <0>         0.0000
     18 H4         -2.6708   -3.1037    1.8522 H         1 <0>         0.0000
     19 H5         -2.4582   -4.4336    0.7050 H         1 <0>         0.0000
     20 H6         -3.3652   -2.9955    0.2281 H         1 <0>         0.0000
     21 H7          3.4048    5.9085   -1.9515 H         1 <0>         0.0000
     22 H8          3.3663    5.2023   -3.5738 H         1 <0>         0.0000
     23 H9          2.3693    6.6137   -3.1992 H         1 <0>         0.0000
     24 H10        -1.0377   -2.9597   -0.7613 H         1 <0>         0.0000
     25 H11        -0.3427   -3.1235    0.8423 H         1 <0>         0.0000
     26 H12         0.9424    4.5461   -3.2251 H         1 <0>         0.0000
     27 H13         0.9806    5.2486   -1.6122 H         1 <0>         0.0000
     28 H14         2.6976    2.8818   -2.5472 H         1 <0>         0.0000
     29 H15         2.7354    3.5876   -0.9250 H         1 <0>         0.0000
     30 H16         2.0037   -0.5850    0.0148 H         1 <0>         0.0000
@<TRIPOS>BOND
     1    1    2 2
     2    1    3 1
     3    1   14 1
     4    2    5 1
     5    2   12 1
     6    3   11 2
     7    3   13 1
     8    4    5 1
     9    4   14 1
    10    4   15 1
    11    4   16 1
    12    5    8 1
    13    5   17 1
    14    6    8 1
    15    6   18 1
    16    6   19 1
    17    6   20 1
    18    7    9 1
    19    7   21 1
    20    7   22 1
    21    7   23 1
    22    8   24 1
    23    8   25 1
    24    9   10 1
    25    9   26 1
    26    9   27 1
    27   10   13 1
    28   10   28 1
    29   10   29 1
    30   12   30 1
