@<TRIPOS>MOLECULE
*****
   38    41     0     0     0
SMALL
NO_CHARGES

@<TRIPOS>ATOM
      1 C1          0.5429   -6.3648   -4.4667 C.ar      1 <0>         0.0000
      2 C2         -0.2520   -6.6138   -3.3172 C.ar      1 <0>         0.0000
      3 C3          1.3335   -5.2361   -4.5332 C.ar      1 <0>         0.0000
      4 C4         -0.2403   -5.7294   -2.2586 C.ar      1 <0>         0.0000
      5 C5          2.1697   -3.1337   -3.4869 C.ar      1 <0>         0.0000
      6 C6          2.1755   -2.2513   -2.4308 C.ar      1 <0>         0.0000
      7 C7          0.5983   -3.6256   -1.2256 C.ar      1 <0>         0.0000
      8 C8          1.3652   -4.3059   -3.4583 C.ar      1 <0>         0.0000
      9 C9          0.5629   -4.5561   -2.2992 C.ar      1 <0>         0.0000
     10 C10         1.3774   -2.4854   -1.2754 C.ar      1 <0>         0.0000
     11 C11         0.9170    0.6885   -1.3187 C.2       1 <0>         0.0000
     12 C12        -1.8523    0.5359   -0.1361 C.3       1 <0>         0.0000
     13 C13        -1.1629    0.9553    1.1788 C.3       1 <0>         0.0000
     14 C14        -1.0473   -0.6893   -0.5916 C.3       1 <0>         0.0000
     15 C15         1.2962    1.7264    0.7163 C.3       1 <0>         0.0000
     16 C16         0.3335    0.5682    1.0173 C.3       1 <0>         0.0000
     17 C17         0.4054   -0.3040   -0.2654 C.3       1 <0>         0.0000
     18 C18         1.3769   -1.5059   -0.1234 C.3       1 <0>         0.0000
     19 O1          0.9014    0.5619   -2.5207 O.2       1 <0>         0.0000
     20 O2          1.4149    1.8100   -0.7226 O.3       1 <0>         0.0000
     21 H1          0.5249   -7.0685   -5.2949 H         1 <0>         0.0000
     22 H2         -0.8711   -7.5063   -3.2757 H         1 <0>         0.0000
     23 H3          1.9430   -5.0434   -5.4133 H         1 <0>         0.0000
     24 H4         -0.8495   -5.9203   -1.3776 H         1 <0>         0.0000
     25 H5          2.7834   -2.9373   -4.3631 H         1 <0>         0.0000
     26 H6          2.7865   -1.3553   -2.4817 H         1 <0>         0.0000
     27 H7         -0.0078   -3.8291   -0.3443 H         1 <0>         0.0000
     28 H8         -2.9169    0.3221   -0.0044 H         1 <0>         0.0000
     29 H9         -1.7701    1.3324   -0.8845 H         1 <0>         0.0000
     30 H10        -1.2965    2.0171    1.4089 H         1 <0>         0.0000
     31 H11        -1.5913    0.3918    2.0146 H         1 <0>         0.0000
     32 H12        -1.3276   -1.5708   -0.0021 H         1 <0>         0.0000
     33 H13        -1.1717   -0.9375   -1.6475 H         1 <0>         0.0000
     34 H14         0.9364    2.6959    1.0688 H         1 <0>         0.0000
     35 H15         2.2969    1.5507    1.1246 H         1 <0>         0.0000
     36 H16         0.6850    0.0233    1.8974 H         1 <0>         0.0000
     37 H17         1.0852   -2.0333    0.7915 H         1 <0>         0.0000
     38 H18         2.3925   -1.1273    0.0453 H         1 <0>         0.0000
@<TRIPOS>BOND
     1    1    2 ar
     2    1    3 ar
     3    1   21 1
     4    2    4 ar
     5    2   22 1
     6    3    8 ar
     7    3   23 1
     8    4    9 ar
     9    4   24 1
    10    5    6 ar
    11    5    8 ar
    12    5   25 1
    13    6   10 ar
    14    6   26 1
    15    7    9 ar
    16    7   10 ar
    17    7   27 1
    18    8    9 ar
    19   10   18 1
    20   11   17 1
    21   11   19 2
    22   11   20 1
    23   12   13 1
    24   12   14 1
    25   12   28 1
    26   12   29 1
    27   13   16 1
    28   13   30 1
    29   13   31 1
    30   14   17 1
    31   14   32 1
    32   14   33 1
    33   15   16 1
    34   15   20 1
    35   15   34 1
    36   15   35 1
    37   16   17 1
    38   16   36 1
    39   17   18 1
    40   18   37 1
    41   18   38 1
