@<TRIPOS>MOLECULE
*****
   30    30     0     0     0
SMALL
NO_CHARGES

@<TRIPOS>ATOM
      1 C1          0.3400    1.2730    0.0966 C.2       1 <0>         0.0000
      2 C2          0.3798   -0.0901    0.1184 C.2       1 <0>         0.0000
      3 C3          1.5443    2.0494   -0.1161 C.2       1 <0>         0.0000
      4 C4         -2.0140    0.2761    0.1719 C.3       1 <0>         0.0000
      5 C5         -0.9225   -0.7757    0.4492 C.3       1 <0>         0.0000
      6 C6         -2.4231   -2.8176    0.1072 C.3       1 <0>         0.0000
      7 C7          2.4235    4.9676    2.2329 C.3       1 <0>         0.0000
      8 C8         -1.1362   -2.0958   -0.3060 C.3       1 <0>         0.0000
      9 C9          3.2813    4.3743    1.1101 C.3       1 <0>         0.0000
     10 C10         2.5301    4.2202   -0.2080 C.3       1 <0>         0.0000
     11 O1          2.6511    1.5253   -0.3274 O.2       1 <0>         0.0000
     12 O2          1.4700   -0.8431   -0.0719 O.3       1 <0>         0.0000
     13 O3          1.3540    3.3780   -0.0587 O.3       1 <0>         0.0000
     14 S1         -1.2767    1.9494    0.4488 S.3       1 <0>         0.0000
     15 H1         -2.3393    0.2131   -0.8718 H         1 <0>         0.0000
     16 H2         -2.8824    0.1645    0.8219 H         1 <0>         0.0000
     17 H3         -0.8945   -0.9897    1.5297 H         1 <0>         0.0000
     18 H4         -2.4301   -3.0264    1.1833 H         1 <0>         0.0000
     19 H5         -2.5188   -3.7732   -0.4181 H         1 <0>         0.0000
     20 H6         -3.3147   -2.2247   -0.1231 H         1 <0>         0.0000
     21 H7          2.0490    5.9618    1.9625 H         1 <0>         0.0000
     22 H8          1.5580    4.3330    2.4456 H         1 <0>         0.0000
     23 H9          3.0040    5.0674    3.1555 H         1 <0>         0.0000
     24 H10        -1.1506   -1.8896   -1.3834 H         1 <0>         0.0000
     25 H11        -0.2714   -2.7417   -0.1256 H         1 <0>         0.0000
     26 H12         3.6815    3.3991    1.4050 H         1 <0>         0.0000
     27 H13         4.1460    5.0212    0.9133 H         1 <0>         0.0000
     28 H14         2.1251    5.1764   -0.5479 H         1 <0>         0.0000
     29 H15         3.1710    3.7967   -0.9838 H         1 <0>         0.0000
     30 H16         2.2200   -0.2079   -0.2255 H         1 <0>         0.0000
@<TRIPOS>BOND
     1    1    2 2
     2    1    3 1
     3    1   14 1
     4    2    5 1
     5    2   12 1
     6    3   11 2
     7    3   13 1
     8    4    5 1
     9    4   14 1
    10    4   15 1
    11    4   16 1
    12    5    8 1
    13    5   17 1
    14    6    8 1
    15    6   18 1
    16    6   19 1
    17    6   20 1
    18    7    9 1
    19    7   21 1
    20    7   22 1
    21    7   23 1
    22    8   24 1
    23    8   25 1
    24    9   10 1
    25    9   26 1
    26    9   27 1
    27   10   13 1
    28   10   28 1
    29   10   29 1
    30   12   30 1
