@<TRIPOS>MOLECULE
*****
   41    41     0     0     0
SMALL
NO_CHARGES

@<TRIPOS>ATOM
      1 C1          0.6889   -2.5870   -2.8469 C.3       1 <0>         0.0000
      2 C2          1.8185   -2.3442   -1.8322 C.3       1 <0>         0.0000
      3 C3         -0.5603   -2.4401   -1.9760 C.3       1 <0>         0.0000
      4 C4          1.2908   -2.9771   -0.5210 C.3       1 <0>         0.0000
      5 C5          1.9355   -4.3389   -0.2250 C.3       1 <0>         0.0000
      6 C6          1.3418   -5.0106    1.0174 C.3       1 <0>         0.0000
      7 C7         -2.4107   -8.6031    3.5186 C.3       1 <0>         0.0000
      8 C8         -0.9268   -8.2737    3.7239 C.3       1 <0>         0.0000
      9 C9         -2.9871   -9.3456    4.7296 C.3       1 <0>         0.0000
     10 C10         1.9719   -6.3770    1.2719 C.3       1 <0>         0.0000
     11 C11        -0.3496   -7.5372    2.5148 C.3       1 <0>         0.0000
     12 C12        -4.4504   -9.6923    4.5717 C.3       1 <0>         0.0000
     13 N1         -0.1750   -3.1265   -0.7288 N.3       1 <0>         0.0000
     14 O1          1.4842   -6.1759    3.8997 O.2       1 <0>         0.0000
     15 O2          2.1187   -8.4565    2.9346 O.2       1 <0>         0.0000
     16 F1         -4.9256  -10.3495    5.6595 F         1 <0>         0.0000
     17 F2         -4.6736  -10.4921    3.4956 F         1 <0>         0.0000
     18 F3         -5.2234   -8.5862    4.4071 F         1 <0>         0.0000
     19 S1          1.4107   -7.1681    2.8092 S.o2      1 <0>         0.0000
     20 H1          0.7061   -1.8871   -3.6868 H         1 <0>         0.0000
     21 H2          0.7441   -3.6041   -3.2497 H         1 <0>         0.0000
     22 H3          2.7754   -2.7732   -2.1435 H         1 <0>         0.0000
     23 H4          1.9689   -1.2678   -1.6970 H         1 <0>         0.0000
     24 H5         -0.7849   -1.3710   -1.8258 H         1 <0>         0.0000
     25 H6         -1.4454   -2.9114   -2.4166 H         1 <0>         0.0000
     26 H7          1.4988   -2.3105    0.3281 H         1 <0>         0.0000
     27 H8          1.7950   -4.9875   -1.0994 H         1 <0>         0.0000
     28 H9          3.0167   -4.2010   -0.0913 H         1 <0>         0.0000
     29 H10         0.2622   -5.1101    0.8673 H         1 <0>         0.0000
     30 H11         1.4971   -4.3787    1.8985 H         1 <0>         0.0000
     31 H12        -2.5342   -9.2195    2.6215 H         1 <0>         0.0000
     32 H13        -2.9777   -7.6804    3.3535 H         1 <0>         0.0000
     33 H14        -0.8015   -7.6502    4.6152 H         1 <0>         0.0000
     34 H15        -0.3567   -9.1934    3.8890 H         1 <0>         0.0000
     35 H16        -2.4516  -10.2839    4.9031 H         1 <0>         0.0000
     36 H17        -2.8961   -8.7419    5.6376 H         1 <0>         0.0000
     37 H18         1.7782   -7.0946    0.4688 H         1 <0>         0.0000
     38 H19         3.0559   -6.3101    1.4125 H         1 <0>         0.0000
     39 H20        -0.3976   -8.1456    1.6067 H         1 <0>         0.0000
     40 H21        -0.8544   -6.5829    2.3443 H         1 <0>         0.0000
     41 H22        -0.6994   -2.7743    0.0657 H         1 <0>         0.0000
@<TRIPOS>BOND
     1    1    2 1
     2    1    3 1
     3    1   20 1
     4    1   21 1
     5    2    4 1
     6    2   22 1
     7    2   23 1
     8    3   13 1
     9    3   24 1
    10    3   25 1
    11    4    5 1
    12    4   13 1
    13    4   26 1
    14    5    6 1
    15    5   27 1
    16    5   28 1
    17    6   10 1
    18    6   29 1
    19    6   30 1
    20    7    8 1
    21    7    9 1
    22    7   31 1
    23    7   32 1
    24    8   11 1
    25    8   33 1
    26    8   34 1
    27    9   12 1
    28    9   35 1
    29    9   36 1
    30   10   19 1
    31   10   37 1
    32   10   38 1
    33   11   19 1
    34   11   39 1
    35   11   40 1
    36   12   16 1
    37   12   17 1
    38   12   18 1
    39   13   41 1
    40   14   19 2
    41   15   19 2
