@<TRIPOS>MOLECULE
*****
   33    33     0     0     0
SMALL
NO_CHARGES

@<TRIPOS>ATOM
      1 C1         -0.9140   -0.6810   -0.2991 C.2       1 <0>         0.0000
      2 C2          1.9951    0.9139   -0.2487 C.3       1 <0>         0.0000
      3 C3          2.2255   -0.4452   -0.9209 C.3       1 <0>         0.0000
      4 C4          0.5473    1.4229   -0.2583 C.3       1 <0>         0.0000
      5 C5          1.4490   -1.6029   -0.2796 C.3       1 <0>         0.0000
      6 C6         -0.4340    0.5188    0.5052 C.3       1 <0>         0.0000
      7 C7         -5.4543   -0.0192    1.0927 C.3       1 <0>         0.0000
      8 C8         -5.0271    1.2196    1.8903 C.3       1 <0>         0.0000
      9 C9         -3.8667    0.9701    2.8679 C.3       1 <0>         0.0000
     10 C10        -2.6036    0.3873    2.2302 C.3       1 <0>         0.0000
     11 N1          0.0206   -1.6251   -0.6018 N.am      1 <0>         0.0000
     12 O1         -2.0873   -0.7925   -0.6675 O.2       1 <0>         0.0000
     13 O2         -1.3182    2.7054    1.8088 O.2       1 <0>         0.0000
     14 S1         -1.9128    1.5637    0.9886 S.o       1 <0>         0.0000
     15 H1          2.3401    0.8597    0.7926 H         1 <0>         0.0000
     16 H2          2.6257    1.6633   -0.7404 H         1 <0>         0.0000
     17 H3          1.9652   -0.3948   -1.9853 H         1 <0>         0.0000
     18 H4          3.2942   -0.6858   -0.8651 H         1 <0>         0.0000
     19 H5          0.5237    2.4049    0.2254 H         1 <0>         0.0000
     20 H6          0.1922    1.5561   -1.2873 H         1 <0>         0.0000
     21 H7          1.8539   -2.5557   -0.6294 H         1 <0>         0.0000
     22 H8          1.5856   -1.5876    0.8096 H         1 <0>         0.0000
     23 H9          0.0245    0.2028    1.4506 H         1 <0>         0.0000
     24 H10        -5.6913   -0.8566    1.7609 H         1 <0>         0.0000
     25 H11        -6.3488    0.1927    0.4975 H         1 <0>         0.0000
     26 H12        -4.6720   -0.3490    0.4023 H         1 <0>         0.0000
     27 H13        -4.7559    2.0229    1.1951 H         1 <0>         0.0000
     28 H14        -5.8790    1.5964    2.4687 H         1 <0>         0.0000
     29 H15        -3.6045    1.9029    3.3789 H         1 <0>         0.0000
     30 H16        -4.1922    0.2661    3.6450 H         1 <0>         0.0000
     31 H17        -1.8145    0.2568    2.9786 H         1 <0>         0.0000
     32 H18        -2.7962   -0.5571    1.7196 H         1 <0>         0.0000
     33 H19        -0.3377   -2.3848   -1.1697 H         1 <0>         0.0000
@<TRIPOS>BOND
     1    1    6 1
     2    1   11 am
     3    1   12 2
     4    2    3 1
     5    2    4 1
     6    2   15 1
     7    2   16 1
     8    3    5 1
     9    3   17 1
    10    3   18 1
    11    4    6 1
    12    4   19 1
    13    4   20 1
    14    5   11 1
    15    5   21 1
    16    5   22 1
    17    6   14 1
    18    6   23 1
    19    7    8 1
    20    7   24 1
    21    7   25 1
    22    7   26 1
    23    8    9 1
    24    8   27 1
    25    8   28 1
    26    9   10 1
    27    9   29 1
    28    9   30 1
    29   10   14 1
    30   10   31 1
    31   10   32 1
    32   11   33 1
    33   13   14 2
