@<TRIPOS>MOLECULE
*****
   56    59     0     0     0
SMALL
NO_CHARGES

@<TRIPOS>ATOM
      1 C1         -1.7381   -6.1894    6.1682 C.ar      1 <0>         0.0000
      2 C2          3.0197   -6.1112   -1.5850 C.ar      1 <0>         0.0000
      3 C3         -0.7005   -7.1252    6.1147 C.ar      1 <0>         0.0000
      4 C4         -1.4936   -4.8633    5.7926 C.ar      1 <0>         0.0000
      5 C5          3.7080   -5.2883   -0.6853 C.ar      1 <0>         0.0000
      6 C6          2.0388   -6.9856   -1.1073 C.ar      1 <0>         0.0000
      7 C7          1.5911   -1.4529    2.1903 C.ar      1 <0>         0.0000
      8 C8         -0.0557   -2.8747    1.1736 C.ar      1 <0>         0.0000
      9 C9          0.5719   -6.7346    5.6841 C.ar      1 <0>         0.0000
     10 C10        -0.2208   -4.4775    5.3650 C.ar      1 <0>         0.0000
     11 C11         3.4162   -5.3411    0.6797 C.ar      1 <0>         0.0000
     12 C12         1.7386   -7.0225    0.2587 C.ar      1 <0>         0.0000
     13 C13         2.1182   -2.5496    2.8694 C.ar      1 <0>         0.0000
     14 C14         0.4592   -3.9750    1.8602 C.ar      1 <0>         0.0000
     15 C15         0.5123   -1.5995    1.3061 C.ar      1 <0>         0.0000
     16 C16         0.8273   -5.4097    5.3051 C.ar      1 <0>         0.0000
     17 C17         2.4207   -6.2017    1.1646 C.ar      1 <0>         0.0000
     18 C18         1.5804   -3.8347    2.6933 C.ar      1 <0>         0.0000
     19 C19         2.1003   -0.7253   -1.1156 C.2       1 <0>         0.0000
     20 C20        -1.1487    1.3516    0.4042 C.3       1 <0>         0.0000
     21 C21         0.2876    0.9979    0.8771 C.3       1 <0>         0.0000
     22 C22        -1.4798   -0.1647    0.3675 C.3       1 <0>         0.0000
     23 C23         0.0530   -0.4735    0.4115 C.3       1 <0>         0.0000
     24 C24         2.1859   -5.0023    4.7645 C.3       1 <0>         0.0000
     25 C25         2.0629   -6.2404    2.6394 C.3       1 <0>         0.0000
     26 C26         0.5803   -0.7073   -1.0307 C.3       1 <0>         0.0000
     27 N1          2.2371   -4.9436    3.2919 N.pl3     1 <0>         0.0000
     28 O1          2.7620    0.2501   -1.4004 O.2       1 <0>         0.0000
     29 O2          2.7199   -1.9095   -0.8514 O.3       1 <0>         0.0000
     30 H1         -2.7277   -6.4889    6.5036 H         1 <0>         0.0000
     31 H2          3.2432   -6.0662   -2.6478 H         1 <0>         0.0000
     32 H3         -0.8806   -8.1560    6.4095 H         1 <0>         0.0000
     33 H4         -2.2945   -4.1294    5.8362 H         1 <0>         0.0000
     34 H5          4.4630   -4.5957   -1.0476 H         1 <0>         0.0000
     35 H6          1.4973   -7.6278   -1.7976 H         1 <0>         0.0000
     36 H7          2.0696   -0.4841    2.3018 H         1 <0>         0.0000
     37 H8         -0.9079   -3.0171    0.5119 H         1 <0>         0.0000
     38 H9          1.3760   -7.4671    5.6454 H         1 <0>         0.0000
     39 H10        -0.0390   -3.4468    5.0719 H         1 <0>         0.0000
     40 H11         3.9403   -4.6912    1.3734 H         1 <0>         0.0000
     41 H12         0.9548   -7.6857    0.6203 H         1 <0>         0.0000
     42 H13         2.9983   -2.4246    3.4948 H         1 <0>         0.0000
     43 H14        -0.0015   -4.9467    1.7245 H         1 <0>         0.0000
     44 H15        -1.1614    1.8081   -0.5892 H         1 <0>         0.0000
     45 H16        -1.7499    1.9692    1.0760 H         1 <0>         0.0000
     46 H17         1.1231    1.5311    0.4174 H         1 <0>         0.0000
     47 H18         0.3769    1.0621    1.9648 H         1 <0>         0.0000
     48 H19        -1.9743   -0.5016    1.2830 H         1 <0>         0.0000
     49 H20        -2.0370   -0.5435   -0.4956 H         1 <0>         0.0000
     50 H21         2.4653   -4.0192    5.1501 H         1 <0>         0.0000
     51 H22         2.9523   -5.7110    5.0964 H         1 <0>         0.0000
     52 H23         1.0476   -6.6509    2.7582 H         1 <0>         0.0000
     53 H24         2.7317   -6.9394    3.1578 H         1 <0>         0.0000
     54 H25         0.1656   -1.6485   -1.4090 H         1 <0>         0.0000
     55 H26         0.2406    0.1007   -1.6827 H         1 <0>         0.0000
     56 H27         2.0825   -2.5673   -0.5175 H         1 <0>         0.0000
@<TRIPOS>BOND
     1    1    4 ar
     2    1    3 ar
     3    1   30 1
     4    2    6 ar
     5    2    5 ar
     6    2   31 1
     7    3    9 ar
     8    3   32 1
     9    4   10 ar
    10    4   33 1
    11    5   11 ar
    12    5   34 1
    13    6   12 ar
    14    6   35 1
    15    7   13 ar
    16    7   15 ar
    17    7   36 1
    18    8   14 ar
    19    8   15 ar
    20    8   37 1
    21    9   16 ar
    22    9   38 1
    23   10   16 ar
    24   10   39 1
    25   11   17 ar
    26   11   40 1
    27   12   17 ar
    28   12   41 1
    29   13   18 ar
    30   13   42 1
    31   14   18 ar
    32   14   43 1
    33   15   23 1
    34   16   24 1
    35   17   25 1
    36   18   27 1
    37   19   26 1
    38   19   28 2
    39   19   29 1
    40   20   22 1
    41   20   21 1
    42   20   44 1
    43   20   45 1
    44   21   23 1
    45   21   46 1
    46   21   47 1
    47   22   23 1
    48   22   48 1
    49   22   49 1
    50   23   26 1
    51   24   27 1
    52   24   50 1
    53   24   51 1
    54   25   27 1
    55   25   52 1
    56   25   53 1
    57   26   54 1
    58   26   55 1
    59   29   56 1
