@<TRIPOS>MOLECULE
*****
   55    58     0     0     0
SMALL
NO_CHARGES

@<TRIPOS>ATOM
      1 C1          5.8390   -2.9454    4.7154 C.ar      1 <0>         0.0000
      2 C2          4.8004   -6.1524   -0.5309 C.ar      1 <0>         0.0000
      3 C3          4.6898   -2.4845    5.3644 C.ar      1 <0>         0.0000
      4 C4          5.7848   -4.1403    3.9874 C.ar      1 <0>         0.0000
      5 C5          4.8094   -7.0717    0.5262 C.ar      1 <0>         0.0000
      6 C6          3.6984   -5.3082   -0.7127 C.ar      1 <0>         0.0000
      7 C7          1.7682   -1.8969    1.3074 C.ar      1 <0>         0.0000
      8 C8         -0.5485   -2.5373    1.3349 C.ar      1 <0>         0.0000
      9 C9          3.4990   -3.2134    5.2771 C.ar      1 <0>         0.0000
     10 C10         4.5937   -4.8645    3.9088 C.ar      1 <0>         0.0000
     11 C11         3.7295   -7.1225    1.4151 C.ar      1 <0>         0.0000
     12 C12         2.6155   -5.3809    0.1682 C.ar      1 <0>         0.0000
     13 C13         2.0852   -2.9878    2.1161 C.ar      1 <0>         0.0000
     14 C14        -0.2387   -3.6216    2.1598 C.ar      1 <0>         0.0000
     15 C15         0.4542   -1.6731    0.8736 C.ar      1 <0>         0.0000
     16 C16         3.4310   -4.4063    4.5455 C.ar      1 <0>         0.0000
     17 C17         2.6296   -6.2654    1.2592 C.ar      1 <0>         0.0000
     18 C18         1.0873   -3.8832    2.5338 C.ar      1 <0>         0.0000
     19 C19         1.8370   -1.8122   -1.7789 C.2       1 <0>         0.0000
     20 C20        -0.4688    1.4562   -0.3745 C.3       1 <0>         0.0000
     21 C21         0.8720    0.7636   -0.0072 C.3       1 <0>         0.0000
     22 C22        -1.2050    0.1182   -0.0895 C.3       1 <0>         0.0000
     23 C23         0.1695   -0.6227   -0.1700 C.3       1 <0>         0.0000
     24 C24         2.1020   -5.1487    4.4396 C.3       1 <0>         0.0000
     25 C25         1.4821   -6.2807    2.2568 C.3       1 <0>         0.0000
     26 C26         0.3994   -1.2383   -1.5736 C.3       1 <0>         0.0000
     27 N1          1.3714   -5.1331    3.1760 N.pl3     1 <0>         0.0000
     28 O1          2.7785   -0.9711   -1.7064 O.co2     1 <0>         0.0000
     29 O2          1.9112   -3.0583   -1.9835 O.co2     1 <0>         0.0000
     30 H1          6.7632   -2.3742    4.7641 H         1 <0>         0.0000
     31 H2          5.6466   -6.1007   -1.2135 H         1 <0>         0.0000
     32 H3          4.7144   -1.5508    5.9218 H         1 <0>         0.0000
     33 H4          6.6672   -4.5007    3.4639 H         1 <0>         0.0000
     34 H5          5.6553   -7.7436    0.6620 H         1 <0>         0.0000
     35 H6          3.6363   -4.5741   -1.5137 H         1 <0>         0.0000
     36 H7          2.5648   -1.2715    0.9152 H         1 <0>         0.0000
     37 H8         -1.5774   -2.3839    1.0155 H         1 <0>         0.0000
     38 H9          2.5990   -2.8339    5.7567 H         1 <0>         0.0000
     39 H10         4.5585   -5.7668    3.3083 H         1 <0>         0.0000
     40 H11         3.7432   -7.8343    2.2411 H         1 <0>         0.0000
     41 H12         1.7755   -4.7205   -0.0222 H         1 <0>         0.0000
     42 H13         3.1243   -3.1851    2.3463 H         1 <0>         0.0000
     43 H14        -1.0156   -4.3108    2.4850 H         1 <0>         0.0000
     44 H15        -0.5137    1.7364   -1.4315 H         1 <0>         0.0000
     45 H16        -0.7684    2.3222    0.2264 H         1 <0>         0.0000
     46 H17         1.7376    0.9144   -0.6535 H         1 <0>         0.0000
     47 H18         1.1507    0.9508    1.0358 H         1 <0>         0.0000
     48 H19        -1.6250    0.0956    0.9228 H         1 <0>         0.0000
     49 H20        -1.9768   -0.1981   -0.8010 H         1 <0>         0.0000
     50 H21         2.2612   -6.2014    4.7000 H         1 <0>         0.0000
     51 H22         1.4401   -4.7321    5.2122 H         1 <0>         0.0000
     52 H23         0.5385   -6.3287    1.7013 H         1 <0>         0.0000
     53 H24         1.5372   -7.1880    2.8703 H         1 <0>         0.0000
     54 H25         0.2201   -0.4599   -2.3281 H         1 <0>         0.0000
     55 H26        -0.3346   -2.0380   -1.7244 H         1 <0>         0.0000
@<TRIPOS>BOND
     1    1    4 ar
     2    1    3 ar
     3    1   30 1
     4    2    6 ar
     5    2    5 ar
     6    2   31 1
     7    3    9 ar
     8    3   32 1
     9    4   10 ar
    10    4   33 1
    11    5   11 ar
    12    5   34 1
    13    6   12 ar
    14    6   35 1
    15    7   13 ar
    16    7   15 ar
    17    7   36 1
    18    8   14 ar
    19    8   15 ar
    20    8   37 1
    21    9   16 ar
    22    9   38 1
    23   10   16 ar
    24   10   39 1
    25   11   17 ar
    26   11   40 1
    27   12   17 ar
    28   12   41 1
    29   13   18 ar
    30   13   42 1
    31   14   18 ar
    32   14   43 1
    33   15   23 1
    34   16   24 1
    35   17   25 1
    36   18   27 1
    37   19   26 1
    38   19   28 1
    39   19   29 2
    40   20   22 1
    41   20   21 1
    42   20   44 1
    43   20   45 1
    44   21   23 1
    45   21   46 1
    46   21   47 1
    47   22   23 1
    48   22   48 1
    49   22   49 1
    50   23   26 1
    51   24   27 1
    52   24   50 1
    53   24   51 1
    54   25   27 1
    55   25   52 1
    56   25   53 1
    57   26   54 1
    58   26   55 1
