@<TRIPOS>MOLECULE
*****
   62    66     0     0     0
SMALL
NO_CHARGES

@<TRIPOS>ATOM
      1 C1         -5.7191   -2.6575   -8.2987 C.ar      1 <0>         0.0000
      2 C2         -5.4662   -2.8096   -6.9430 C.ar      1 <0>         0.0000
      3 C3         -7.0178   -2.8226   -8.8460 C.ar      1 <0>         0.0000
      4 C4         -2.4828   -0.4796   -1.7513 C.ar      1 <0>         0.0000
      5 C5         -0.7150   -2.0901   -0.3272 C.ar      1 <0>         0.0000
      6 C6         -8.0038   -3.6024   -4.4263 C.2       1 <0>         0.0000
      7 C7         -6.5450   -3.1319   -6.0929 C.ar      1 <0>         0.0000
      8 C8         -2.6660   -1.8722   -1.7638 C.ar      1 <0>         0.0000
      9 C9         -6.6738   -3.3238   -4.6652 C.2       1 <0>         0.0000
     10 C10        -5.6009   -3.2312   -3.6687 C.2       1 <0>         0.0000
     11 C11        -4.6798   -2.1383   -3.4678 C.2       1 <0>         0.0000
     12 C12        -1.7626   -2.6802   -1.0349 C.ar      1 <0>         0.0000
     13 C13        -7.8354   -3.3024   -6.6485 C.ar      1 <0>         0.0000
     14 C14        -8.0903   -3.1525   -8.0212 C.ar      1 <0>         0.0000
     15 C15        -1.4291    0.1008   -1.0524 C.ar      1 <0>         0.0000
     16 C16        -0.5325   -0.7059   -0.3261 C.ar      1 <0>         0.0000
     17 C17        -3.7664   -2.5279   -2.4766 C.2       1 <0>         0.0000
     18 C18        -5.2176   -4.2517   -2.8103 C.2       1 <0>         0.0000
     19 C19        -4.6672   -0.8834   -4.2370 C.2       1 <0>         0.0000
     20 C20        -1.9554   -4.1784   -1.0483 C.3       1 <0>         0.0000
     21 C21        -3.4432   -4.5186   -1.0160 C.3       1 <0>         0.0000
     22 C22        -5.7688   -5.6328   -2.6581 C.3       1 <0>         0.0000
     23 C23        -7.3952    0.5124   -6.2009 C.3       1 <0>         0.0000
     24 C24        -9.6888   -3.1850   -9.7966 C.3       1 <0>         0.0000
     25 C25        -0.2661    1.9337   -1.9656 C.3       1 <0>         0.0000
     26 C26         0.2108    0.6572    1.4694 C.3       1 <0>         0.0000
     27 C27        -5.9843    0.5157   -5.6395 C.3       1 <0>         0.0000
     28 N1         -8.7089   -3.5948   -5.6201 N.pl3     1 <0>         0.0000
     29 N2         -4.1129   -3.8131   -2.1030 N.pl3     1 <0>         0.0000
     30 O1         -3.6794   -0.2048   -4.4903 O.2       1 <0>         0.0000
     31 O2         -9.3958   -3.3383   -8.4112 O.3       1 <0>         0.0000
     32 O3         -1.2877    1.4765   -1.0642 O.3       1 <0>         0.0000
     33 O4          0.5475   -0.1749    0.3464 O.3       1 <0>         0.0000
     34 O5         -5.9055   -0.5600   -4.6765 O.3       1 <0>         0.0000
     35 H1         -4.9052   -2.4021   -8.9723 H         1 <0>         0.0000
     36 H2         -4.4652   -2.6737   -6.5441 H         1 <0>         0.0000
     37 H3         -7.1609   -2.6880   -9.9124 H         1 <0>         0.0000
     38 H4         -3.1414    0.1753   -2.3053 H         1 <0>         0.0000
     39 H5         -0.0157   -2.7000    0.2394 H         1 <0>         0.0000
     40 H6         -8.5089   -3.7741   -3.4851 H         1 <0>         0.0000
     41 H7         -1.5177   -4.6046   -1.9611 H         1 <0>         0.0000
     42 H8         -1.4523   -4.6432   -0.1953 H         1 <0>         0.0000
     43 H9         -3.6031   -5.5909   -1.1413 H         1 <0>         0.0000
     44 H10        -3.8841   -4.2180   -0.0560 H         1 <0>         0.0000
     45 H11        -4.9978   -6.3989   -2.8083 H         1 <0>         0.0000
     46 H12        -6.2149   -5.8025   -1.6702 H         1 <0>         0.0000
     47 H13        -6.5455   -5.7913   -3.4085 H         1 <0>         0.0000
     48 H14        -7.6034   -0.4313   -6.7110 H         1 <0>         0.0000
     49 H15        -8.1327    0.6493   -5.4040 H         1 <0>         0.0000
     50 H16        -7.5072    1.3305   -6.9206 H         1 <0>         0.0000
     51 H17       -10.7588   -3.3712   -9.9013 H         1 <0>         0.0000
     52 H18        -9.1310   -3.9094  -10.4026 H         1 <0>         0.0000
     53 H19        -9.4596   -2.1689  -10.1407 H         1 <0>         0.0000
     54 H20        -0.2534    3.0230   -1.8881 H         1 <0>         0.0000
     55 H21        -0.5070    1.6403   -2.9941 H         1 <0>         0.0000
     56 H22         0.7128    1.5302   -1.6840 H         1 <0>         0.0000
     57 H23         1.1602    0.9863    1.8969 H         1 <0>         0.0000
     58 H24        -0.3457    0.0782    2.2171 H         1 <0>         0.0000
     59 H25        -0.3804    1.5226    1.1577 H         1 <0>         0.0000
     60 H26        -5.7403    1.4578   -5.1379 H         1 <0>         0.0000
     61 H27        -5.2381    0.3435   -6.4195 H         1 <0>         0.0000
     62 H28        -9.7001   -3.7472   -5.7327 H         1 <0>         0.0000
@<TRIPOS>BOND
     1    1    2 ar
     2    1    3 ar
     3    1   35 1
     4    2    7 ar
     5    2   36 1
     6    3   14 ar
     7    3   37 1
     8    4    8 ar
     9    4   15 ar
    10    4   38 1
    11    5   12 ar
    12    5   16 ar
    13    5   39 1
    14    6    9 2
    15    6   28 1
    16    6   40 1
    17    7    9 1
    18    7   13 ar
    19    8   12 ar
    20    8   17 1
    21    9   10 1
    22   10   11 1
    23   10   18 2
    24   11   17 2
    25   11   19 1
    26   12   20 1
    27   13   14 ar
    28   13   28 1
    29   14   31 1
    30   15   16 ar
    31   15   32 1
    32   16   33 1
    33   17   29 1
    34   18   22 1
    35   18   29 1
    36   19   30 2
    37   19   34 1
    38   20   21 1
    39   20   41 1
    40   20   42 1
    41   21   29 1
    42   21   43 1
    43   21   44 1
    44   22   45 1
    45   22   46 1
    46   22   47 1
    47   23   27 1
    48   23   48 1
    49   23   49 1
    50   23   50 1
    51   24   31 1
    52   24   51 1
    53   24   52 1
    54   24   53 1
    55   25   32 1
    56   25   54 1
    57   25   55 1
    58   25   56 1
    59   26   33 1
    60   26   57 1
    61   26   58 1
    62   26   59 1
    63   27   34 1
    64   27   60 1
    65   27   61 1
    66   28   62 1
