@<TRIPOS>MOLECULE
*****
   59    62     0     0     0
SMALL
NO_CHARGES

@<TRIPOS>ATOM
      1 C1          1.3486    0.9681   -1.8980 C.ar      1 <0>         0.0000
      2 C2          0.9627    2.5735   -0.1313 C.ar      1 <0>         0.0000
      3 C3         -1.2938   -0.2416   -1.1016 C.ar      1 <0>         0.0000
      4 C4          2.6704    1.4006   -1.9965 C.ar      1 <0>         0.0000
      5 C5          2.2881    2.9949   -0.2313 C.ar      1 <0>         0.0000
      6 C6         -2.6203   -0.6570   -1.0360 C.ar      1 <0>         0.0000
      7 C7         -6.5252   -6.5213   -5.0595 C.ar      1 <0>         0.0000
      8 C8         -7.5933   -4.5071   -5.9000 C.ar      1 <0>         0.0000
      9 C9         -6.2852   -6.9471   -6.3638 C.ar      1 <0>         0.0000
     10 C10        -7.3514   -4.9325   -7.2130 C.ar      1 <0>         0.0000
     11 C11        -1.9693    2.0018   -0.5562 C.ar      1 <0>         0.0000
     12 C12         0.4685    1.5500   -0.9640 C.ar      1 <0>         0.0000
     13 C13        -0.9341    1.1046   -0.8721 C.ar      1 <0>         0.0000
     14 C14         3.1609    2.4185   -1.1659 C.ar      1 <0>         0.0000
     15 C15        -3.3104    1.6103   -0.4706 C.ar      1 <0>         0.0000
     16 C16        -3.6129    0.2708   -0.7269 C.ar      1 <0>         0.0000
     17 C17        -7.1768   -5.3038   -4.8307 C.ar      1 <0>         0.0000
     18 C18        -6.7030   -6.1419   -7.4228 C.ar      1 <0>         0.0000
     19 C19         4.6326    2.8957   -1.2797 C.2       1 <0>         0.0000
     20 C20        -4.3997    2.6160   -0.1516 C.3       1 <0>         0.0000
     21 C21        -5.7207    1.9228    0.2078 C.3       1 <0>         0.0000
     22 C22        -5.9507    0.7778   -0.7735 C.3       1 <0>         0.0000
     23 C23        -7.2415    0.0077   -0.5170 C.3       1 <0>         0.0000
     24 C24        -8.2870   -2.2569   -1.1019 C.3       1 <0>         0.0000
     25 C25        -7.9083   -3.6982   -3.1902 C.3       1 <0>         0.0000
     26 C26        -7.8746   -3.6177   -1.6629 C.3       1 <0>         0.0000
     27 N1         -7.1826   -1.2640   -1.3266 N.4       1 <0>         0.0000
     28 O1          4.9488    3.8247   -0.4899 O.co2     1 <0>         0.0000
     29 O2          5.3172    2.2918   -2.1479 O.co2     1 <0>         0.0000
     30 O3         -4.9364   -0.2150   -0.6606 O.3       1 <0>         0.0000
     31 O4         -6.5597   -3.8374   -1.1665 O.3       1 <0>         0.0000
     32 O5         -7.3732   -4.9716   -3.4960 O.3       1 <0>         0.0000
     33 F1         -6.4701   -6.5537   -8.6909 F         1 <0>         0.0000
     34 H1          0.9809    0.2008   -2.5777 H         1 <0>         0.0000
     35 H2          0.3137    3.0116    0.6257 H         1 <0>         0.0000
     36 H3         -0.5176   -0.9703   -1.3116 H         1 <0>         0.0000
     37 H4          3.3614    0.9755   -2.7193 H         1 <0>         0.0000
     38 H5          2.6931    3.7728    0.4101 H         1 <0>         0.0000
     39 H6         -2.8912   -1.6967   -1.2033 H         1 <0>         0.0000
     40 H7         -6.2132   -7.1246   -4.2123 H         1 <0>         0.0000
     41 H8         -8.1082   -3.5658   -5.7432 H         1 <0>         0.0000
     42 H9         -5.7801   -7.8861   -6.5661 H         1 <0>         0.0000
     43 H10        -7.6634   -4.3332   -8.0624 H         1 <0>         0.0000
     44 H11        -1.7244    3.0486   -0.3956 H         1 <0>         0.0000
     45 H12        -4.0843    3.2595    0.6749 H         1 <0>         0.0000
     46 H13        -4.5567    3.2760   -1.0140 H         1 <0>         0.0000
     47 H14        -5.6706    1.5024    1.2187 H         1 <0>         0.0000
     48 H15        -6.5572    2.6299    0.1748 H         1 <0>         0.0000
     49 H16        -5.9536    1.1763   -1.8032 H         1 <0>         0.0000
     50 H17        -8.1324    0.5689   -0.8044 H         1 <0>         0.0000
     51 H18        -7.3127   -0.2943    0.5297 H         1 <0>         0.0000
     52 H19        -9.2061   -1.8748   -1.5503 H         1 <0>         0.0000
     53 H20        -8.4197   -2.3320   -0.0218 H         1 <0>         0.0000
     54 H21        -7.2906   -2.9106   -3.6501 H         1 <0>         0.0000
     55 H22        -8.9402   -3.5966   -3.5535 H         1 <0>         0.0000
     56 H23        -8.5708   -4.3677   -1.2650 H         1 <0>         0.0000
     57 H24        -7.1137   -1.0220   -2.3202 H         1 <0>         0.0000
     58 H25        -6.2783   -1.7195   -1.0989 H         1 <0>         0.0000
     59 H26        -6.1985   -4.6256   -1.6107 H         1 <0>         0.0000
@<TRIPOS>BOND
     1    1    4 ar
     2    1   12 ar
     3    1   34 1
     4    2    5 ar
     5    2   12 ar
     6    2   35 1
     7    3    6 ar
     8    3   13 ar
     9    3   36 1
    10    4   14 ar
    11    4   37 1
    12    5   14 ar
    13    5   38 1
    14    6   16 ar
    15    6   39 1
    16    7    9 ar
    17    7   17 ar
    18    7   40 1
    19    8   10 ar
    20    8   17 ar
    21    8   41 1
    22    9   18 ar
    23    9   42 1
    24   10   18 ar
    25   10   43 1
    26   11   13 ar
    27   11   15 ar
    28   11   44 1
    29   12   13 1
    30   14   19 1
    31   15   16 ar
    32   15   20 1
    33   16   30 1
    34   17   32 1
    35   18   33 1
    36   19   28 1
    37   19   29 2
    38   20   21 1
    39   20   45 1
    40   20   46 1
    41   21   22 1
    42   21   47 1
    43   21   48 1
    44   22   23 1
    45   22   30 1
    46   22   49 1
    47   23   27 1
    48   23   50 1
    49   23   51 1
    50   24   26 1
    51   24   27 1
    52   24   52 1
    53   24   53 1
    54   25   26 1
    55   25   32 1
    56   25   54 1
    57   25   55 1
    58   26   31 1
    59   26   56 1
    60   27   57 1
    61   27   58 1
    62   31   59 1
