@<TRIPOS>MOLECULE
*****
   37    38     0     0     0
SMALL
NO_CHARGES

@<TRIPOS>ATOM
      1 C1         -0.5724    0.8884   -2.4879 C.2       1 <0>         0.0000
      2 C2         -1.1050   -0.0887   -0.7027 C.2       1 <0>         0.0000
      3 C3          1.1366    2.3524    2.6881 C.3       1 <0>         0.0000
      4 C4          0.9017    1.5798    1.3923 C.3       1 <0>         0.0000
      5 C5          0.0769    1.2945    2.6184 C.3       1 <0>         0.0000
      6 C6          3.7168   -3.4843   -0.8477 C.3       1 <0>         0.0000
      7 C7          2.1884   -3.3104    1.1319 C.3       1 <0>         0.0000
      8 C8          4.2181   -1.8254    0.9552 C.3       1 <0>         0.0000
      9 C9          1.9170    0.5903    0.8616 C.3       1 <0>         0.0000
     10 C10         1.2556   -0.5902    0.1298 C.3       1 <0>         0.0000
     11 C11         2.2263   -1.5120   -0.6560 C.3       1 <0>         0.0000
     12 C12         3.0834   -2.5099    0.1691 C.3       1 <0>         0.0000
     13 N1         -1.6552    0.5183   -1.7501 N.2       1 <0>         0.0000
     14 N2          0.6022    0.5517   -1.9594 N.2       1 <0>         0.0000
     15 N3          0.2416   -0.0873   -0.8085 N.pl3     1 <0>         0.0000
     16 O1          3.0965   -0.7458   -1.4826 O.3       1 <0>         0.0000
     17 Cl1         0.3375   -0.2247    3.5216 Cl        1 <0>         0.0000
     18 Cl2        -1.6321    1.7895    2.6141 Cl        1 <0>         0.0000
     19 H1         -0.6416    1.4129   -3.4321 H         1 <0>         0.0000
     20 H2         -1.6290   -0.5215    0.1396 H         1 <0>         0.0000
     21 H3          2.0241    2.1146    3.2668 H         1 <0>         0.0000
     22 H4          0.8076    3.3850    2.7441 H         1 <0>         0.0000
     23 H5          0.3561    2.1270    0.6288 H         1 <0>         0.0000
     24 H6          4.3503   -2.9485   -1.5585 H         1 <0>         0.0000
     25 H7          2.9463   -4.0197   -1.4146 H         1 <0>         0.0000
     26 H8          4.3293   -4.2293   -0.3286 H         1 <0>         0.0000
     27 H9          1.7995   -2.6939    1.9490 H         1 <0>         0.0000
     28 H10         1.3371   -3.7636    0.6095 H         1 <0>         0.0000
     29 H11         2.7636   -4.1233    1.5874 H         1 <0>         0.0000
     30 H12         3.8509   -1.2900    1.8349 H         1 <0>         0.0000
     31 H13         4.7640   -1.1222    0.3217 H         1 <0>         0.0000
     32 H14         4.9245   -2.5810    1.3155 H         1 <0>         0.0000
     33 H15         2.5170    0.1968    1.6811 H         1 <0>         0.0000
     34 H16         2.6007    1.1035    0.1807 H         1 <0>         0.0000
     35 H17         0.6942   -1.1902    0.8470 H         1 <0>         0.0000
     36 H18         1.5707   -2.1322   -1.2881 H         1 <0>         0.0000
     37 H19         2.5264   -0.1835   -2.0437 H         1 <0>         0.0000
@<TRIPOS>BOND
     1    1   13 1
     2    1   14 2
     3    1   19 1
     4    2   13 2
     5    2   15 1
     6    2   20 1
     7    3    4 1
     8    3    5 1
     9    3   21 1
    10    3   22 1
    11    4    5 1
    12    4    9 1
    13    4   23 1
    14    5   17 1
    15    5   18 1
    16    6   12 1
    17    6   24 1
    18    6   25 1
    19    6   26 1
    20    7   12 1
    21    7   27 1
    22    7   28 1
    23    7   29 1
    24    8   12 1
    25    8   30 1
    26    8   31 1
    27    8   32 1
    28    9   10 1
    29    9   33 1
    30    9   34 1
    31   10   11 1
    32   10   15 1
    33   10   35 1
    34   11   12 1
    35   11   16 1
    36   11   36 1
    37   14   15 1
    38   16   37 1
