@<TRIPOS>MOLECULE
*****
   29    31     0     0     0
SMALL
NO_CHARGES

@<TRIPOS>ATOM
      1 C1         -0.2496   -0.3907   -2.7092 C.ar      1 <0>         0.0000
      2 C2         -1.4110    0.1717   -2.1926 C.ar      1 <0>         0.0000
      3 C3         -2.9013    3.2454    2.2723 C.ar      1 <0>         0.0000
      4 C4         -3.6712    2.6440    3.2678 C.ar      1 <0>         0.0000
      5 C5          0.8163   -0.6747   -1.8612 C.ar      1 <0>         0.0000
      6 C6         -1.5060    0.4652   -0.8294 C.ar      1 <0>         0.0000
      7 C7         -1.8571    2.5388    1.6757 C.ar      1 <0>         0.0000
      8 C8         -3.3969    1.3358    3.6668 C.ar      1 <0>         0.0000
      9 C9          0.7330   -0.3887   -0.4884 C.ar      1 <0>         0.0000
     10 C10        -0.4338    0.2144    0.0482 C.ar      1 <0>         0.0000
     11 C11        -1.5827    1.2307    2.0747 C.ar      1 <0>         0.0000
     12 C12        -2.3526    0.6292    3.0702 C.ar      1 <0>         0.0000
     13 C13         1.6814   -0.4803    1.8417 C.2       1 <0>         0.0000
     14 C14         0.5524    0.0997    2.2654 C.2       1 <0>         0.0000
     15 C15         1.9090   -0.7541    0.3907 C.3       1 <0>         0.0000
     16 N1         -0.5091    0.5067    1.4600 N.pl3     1 <0>         0.0000
     17 F1         -2.0975   -0.6274    3.4614 F         1 <0>         0.0000
     18 H1         -0.1778   -0.6176   -3.7686 H         1 <0>         0.0000
     19 H2         -2.2491    0.3839   -2.8506 H         1 <0>         0.0000
     20 H3         -3.1150    4.2640    1.9619 H         1 <0>         0.0000
     21 H4         -4.4843    3.1946    3.7318 H         1 <0>         0.0000
     22 H5          1.7152   -1.1282   -2.2716 H         1 <0>         0.0000
     23 H6         -2.4320    0.9048   -0.4669 H         1 <0>         0.0000
     24 H7         -1.2638    3.0169    0.9002 H         1 <0>         0.0000
     25 H8         -3.9961    0.8674    4.4418 H         1 <0>         0.0000
     26 H9          2.4540   -0.7546    2.5526 H         1 <0>         0.0000
     27 H10         0.4092    0.3013    3.3231 H         1 <0>         0.0000
     28 H11         2.1209   -1.8232    0.2703 H         1 <0>         0.0000
     29 H12         2.7891   -0.1899    0.0601 H         1 <0>         0.0000
@<TRIPOS>BOND
     1    1    2 ar
     2    1    5 ar
     3    1   18 1
     4    2    6 ar
     5    2   19 1
     6    3    4 ar
     7    3    7 ar
     8    3   20 1
     9    4    8 ar
    10    4   21 1
    11    5    9 ar
    12    5   22 1
    13    6   10 ar
    14    6   23 1
    15    7   11 ar
    16    7   24 1
    17    8   12 ar
    18    8   25 1
    19    9   10 ar
    20    9   15 1
    21   10   16 1
    22   11   12 ar
    23   11   16 1
    24   12   17 1
    25   13   14 2
    26   13   15 1
    27   13   26 1
    28   14   16 1
    29   14   27 1
    30   15   28 1
    31   15   29 1
