@<TRIPOS>MOLECULE
*****
   30    31     0     0     0
SMALL
NO_CHARGES

@<TRIPOS>ATOM
      1 C1         -1.5014   -4.3414   -0.6490 C.ar      1 <0>         0.0000
      2 C2         -0.9739   -3.0507   -0.6843 C.ar      1 <0>         0.0000
      3 C3         -2.7444   -4.6120   -0.0690 C.ar      1 <0>         0.0000
      4 C4         -2.9594   -2.2426    0.4647 C.ar      1 <0>         0.0000
      5 C5          3.7267    0.9113   -2.3088 C.2       1 <0>         0.0000
      6 C6          1.5990    1.3221   -1.1705 C.2       1 <0>         0.0000
      7 C7         -1.7060   -1.9889   -0.1236 C.ar      1 <0>         0.0000
      8 C8          2.4880    0.4378   -1.7783 C.2       1 <0>         0.0000
      9 C9         -3.4543   -3.5429    0.4816 C.ar      1 <0>         0.0000
     10 C10         4.0222    2.2331   -2.2111 C.2       1 <0>         0.0000
     11 C11         1.9331    2.7281   -1.0763 C.2       1 <0>         0.0000
     12 C12         0.3294    0.9056   -0.6141 C.2       1 <0>         0.0000
     13 C13         5.2668    2.8923   -2.7103 C.3       1 <0>         0.0000
     14 N1         -0.0427   -0.3375   -0.6585 N.2       1 <0>         0.0000
     15 N2         -1.2390   -0.6791   -0.1267 N.pl3     1 <0>         0.0000
     16 O1          1.2574    3.6064   -0.5759 O.2       1 <0>         0.0000
     17 O2          3.1742    3.1125   -1.6247 O.3       1 <0>         0.0000
     18 O3          2.2339   -0.8697   -1.8940 O.3       1 <0>         0.0000
     19 Cl1        -5.0211   -3.8383    1.2210 Cl        1 <0>         0.0000
     20 H1         -0.9306   -5.1574   -1.0840 H         1 <0>         0.0000
     21 H2         -0.0087   -2.8692   -1.1401 H         1 <0>         0.0000
     22 H3         -3.1509   -5.6170   -0.0437 H         1 <0>         0.0000
     23 H4         -3.5393   -1.4348    0.9028 H         1 <0>         0.0000
     24 H5          4.4120    0.2173   -2.7796 H         1 <0>         0.0000
     25 H6         -0.2919    1.6830   -0.1603 H         1 <0>         0.0000
     26 H7          5.0153    3.6683   -3.4409 H         1 <0>         0.0000
     27 H8          5.9313    2.1631   -3.1768 H         1 <0>         0.0000
     28 H9          5.7928    3.3802   -1.8830 H         1 <0>         0.0000
     29 H10        -1.8079    0.0475    0.3008 H         1 <0>         0.0000
     30 H11         1.3426   -1.0383   -1.4803 H         1 <0>         0.0000
@<TRIPOS>BOND
     1    1    2 ar
     2    1    3 ar
     3    1   20 1
     4    2    7 ar
     5    2   21 1
     6    3    9 ar
     7    3   22 1
     8    4    7 ar
     9    4    9 ar
    10    4   23 1
    11    5    8 1
    12    5   10 2
    13    5   24 1
    14    6    8 2
    15    6   11 1
    16    6   12 1
    17    7   15 1
    18    8   18 1
    19    9   19 1
    20   10   13 1
    21   10   17 1
    22   11   16 2
    23   11   17 1
    24   12   14 2
    25   12   25 1
    26   13   26 1
    27   13   27 1
    28   13   28 1
    29   14   15 1
    30   15   29 1
    31   18   30 1
