@<TRIPOS>MOLECULE
*****
   31    32     0     0     0
SMALL
NO_CHARGES

@<TRIPOS>ATOM
      1 C1          2.8644   -3.5037   -4.9902 C.ar      1 <0>         0.0000
      2 C2          3.0850   -2.5148   -4.0368 C.ar      1 <0>         0.0000
      3 C3          1.7145   -3.4792   -5.7994 C.ar      1 <0>         0.0000
      4 C4          2.0742   -0.3382   -3.0320 C.2       1 <0>         0.0000
      5 C5          0.9619    0.3700   -3.3670 C.2       1 <0>         0.0000
      6 C6          2.1728   -1.4537   -3.9448 C.ar      1 <0>         0.0000
      7 C7          1.0572   -1.3734   -4.8306 C.ar      1 <0>         0.0000
      8 C8          0.7914   -2.4380   -5.7027 C.ar      1 <0>         0.0000
      9 C9         -0.5195    0.5964   -5.2615 C.2       1 <0>         0.0000
     10 C10        -0.8005    2.5952   -7.5000 C.3       1 <0>         0.0000
     11 C11        -0.5985    0.5042   -8.8888 C.3       1 <0>         0.0000
     12 C12        -2.6126    0.8117   -7.3996 C.3       1 <0>         0.0000
     13 C13        -1.1222    1.1014   -7.5829 C.3       1 <0>         0.0000
     14 N1          0.3308   -0.2232   -4.4767 N.am      1 <0>         0.0000
     15 O1         -1.2453    1.4258   -4.7484 O.2       1 <0>         0.0000
     16 O2         -0.3304    0.3688   -6.5586 O.3       1 <0>         0.0000
     17 Br1        -0.8730   -2.6534   -6.6331 Br        1 <0>         0.0000
     18 H1          3.5574   -4.3347   -5.0883 H         1 <0>         0.0000
     19 H2          3.9360   -2.5681   -3.3633 H         1 <0>         0.0000
     20 H3          1.5145   -4.2996   -6.4805 H         1 <0>         0.0000
     21 H4          2.7545   -0.1067   -2.2227 H         1 <0>         0.0000
     22 H5          0.5451    1.2801   -2.9608 H         1 <0>         0.0000
     23 H6         -1.1714    3.0345   -6.5736 H         1 <0>         0.0000
     24 H7          0.2802    2.7559   -7.5645 H         1 <0>         0.0000
     25 H8         -1.2712    3.1089   -8.3444 H         1 <0>         0.0000
     26 H9         -0.7888   -0.5707   -8.9271 H         1 <0>         0.0000
     27 H10         0.4792    0.6677   -8.9807 H         1 <0>         0.0000
     28 H11        -1.0965    0.9816   -9.7378 H         1 <0>         0.0000
     29 H12        -2.7952   -0.2660   -7.3979 H         1 <0>         0.0000
     30 H13        -2.9929    1.2386   -6.4709 H         1 <0>         0.0000
     31 H14        -3.1650    1.2512   -8.2364 H         1 <0>         0.0000
@<TRIPOS>BOND
     1    1    2 ar
     2    1    3 ar
     3    1   18 1
     4    2    6 ar
     5    2   19 1
     6    3    8 ar
     7    3   20 1
     8    4    5 2
     9    4    6 1
    10    4   21 1
    11    5   14 1
    12    5   22 1
    13    6    7 ar
    14    7    8 ar
    15    7   14 1
    16    8   17 1
    17    9   14 am
    18    9   15 2
    19    9   16 1
    20   10   13 1
    21   10   23 1
    22   10   24 1
    23   10   25 1
    24   11   13 1
    25   11   26 1
    26   11   27 1
    27   11   28 1
    28   12   13 1
    29   12   29 1
    30   12   30 1
    31   12   31 1
    32   13   16 1
