@<TRIPOS>MOLECULE
*****
   44    46     0     0     0
SMALL
NO_CHARGES

@<TRIPOS>ATOM
      1 C1         -0.9354    1.3105   -5.5398 C.ar      1 <0>         0.0000
      2 C2         -2.1115    1.5112   -6.2684 C.ar      1 <0>         0.0000
      3 C3         -1.0151    0.6916   -4.2926 C.ar      1 <0>         0.0000
      4 C4         -3.3155    1.0812   -5.7049 C.ar      1 <0>         0.0000
      5 C5         -2.2720    0.2983   -3.8113 C.ar      1 <0>         0.0000
      6 C6         -0.4472    1.7485   -0.1042 C.3       1 <0>         0.0000
      7 C7         -0.2010    0.7351    1.0196 C.3       1 <0>         0.0000
      8 C8          0.0384   -1.7262    1.6311 C.3       1 <0>         0.0000
      9 C9         -1.6113    1.3133   -0.9931 C.3       1 <0>         0.0000
     10 C10         1.5258   -1.7073    2.0333 C.3       1 <0>         0.0000
     11 C11        -1.2931   -1.0055   -0.4171 C.3       1 <0>         0.0000
     12 C12         1.2437   -0.9134   -0.2648 C.3       1 <0>         0.0000
     13 C13        -0.0893   -0.7051    0.4791 C.3       1 <0>         0.0000
     14 C14         3.9811   -3.0181   -0.0568 C.3       1 <0>         0.0000
     15 C15        -2.4178   -0.4184   -2.4816 C.3       1 <0>         0.0000
     16 N1         -3.4058    0.4922   -4.5037 N.ar      1 <0>         0.0000
     17 N2         -1.3920   -0.0425   -1.5128 N.3       1 <0>         0.0000
     18 N3          2.1853   -1.1174    0.8470 N.pl3     1 <0>         0.0000
     19 O1          4.4614   -1.2906    1.8835 O.2       1 <0>         0.0000
     20 O2          4.1796   -0.4268   -0.5140 O.2       1 <0>         0.0000
     21 S1          3.8019   -1.3302    0.5760 S.o2      1 <0>         0.0000
     22 H1          0.0250    1.6302   -5.9368 H         1 <0>         0.0000
     23 H2         -2.1015    1.9901   -7.2434 H         1 <0>         0.0000
     24 H3         -0.1353    0.5152   -3.6821 H         1 <0>         0.0000
     25 H4         -4.2544    1.2209   -6.2391 H         1 <0>         0.0000
     26 H5         -0.6627    2.7343    0.3224 H         1 <0>         0.0000
     27 H6          0.4516    1.8598   -0.7201 H         1 <0>         0.0000
     28 H7          0.7008    0.9985    1.5821 H         1 <0>         0.0000
     29 H8         -1.0423    0.7703    1.7244 H         1 <0>         0.0000
     30 H9         -0.2368   -2.7232    1.2678 H         1 <0>         0.0000
     31 H10        -0.6164   -1.4884    2.4737 H         1 <0>         0.0000
     32 H11        -2.5588    1.3580   -0.4197 H         1 <0>         0.0000
     33 H12        -1.7164    1.9986   -1.8388 H         1 <0>         0.0000
     34 H13         1.7232   -1.0803    2.9058 H         1 <0>         0.0000
     35 H14         1.8987   -2.7132    2.2566 H         1 <0>         0.0000
     36 H15        -1.1893   -2.0093   -0.8450 H         1 <0>         0.0000
     37 H16        -2.2115   -1.0118    0.2043 H         1 <0>         0.0000
     38 H17         1.1761   -1.7954   -0.9207 H         1 <0>         0.0000
     39 H18         1.5566   -0.0638   -0.8677 H         1 <0>         0.0000
     40 H19         5.0451   -3.1819   -0.2364 H         1 <0>         0.0000
     41 H20         3.6145   -3.7198    0.6942 H         1 <0>         0.0000
     42 H21         3.4230   -3.1063   -0.9902 H         1 <0>         0.0000
     43 H22        -3.4424   -0.2462   -2.1108 H         1 <0>         0.0000
     44 H23        -2.3304   -1.4959   -2.6694 H         1 <0>         0.0000
@<TRIPOS>BOND
     1    1    2 ar
     2    1    3 ar
     3    1   22 1
     4    2    4 ar
     5    2   23 1
     6    3    5 ar
     7    3   24 1
     8    4   16 ar
     9    4   25 1
    10    5   15 1
    11    5   16 ar
    12    6    7 1
    13    6    9 1
    14    6   26 1
    15    6   27 1
    16    7   13 1
    17    7   28 1
    18    7   29 1
    19    8   10 1
    20    8   13 1
    21    8   30 1
    22    8   31 1
    23    9   17 1
    24    9   32 1
    25    9   33 1
    26   10   18 1
    27   10   34 1
    28   10   35 1
    29   11   13 1
    30   11   17 1
    31   11   36 1
    32   11   37 1
    33   12   13 1
    34   12   18 1
    35   12   38 1
    36   12   39 1
    37   14   21 1
    38   14   40 1
    39   14   41 1
    40   14   42 1
    41   15   17 1
    42   15   43 1
    43   15   44 1
    44   18   21 1
    45   19   21 2
    46   20   21 2
