@<TRIPOS>MOLECULE
*****
   31    33     0     0     0
SMALL
NO_CHARGES

@<TRIPOS>ATOM
      1 C1         -7.5352    1.3503    0.4205 C.1       1 <0>         0.0000
      2 C2         -1.3355   -0.0681    0.7583 C.ar      1 <0>         0.0000
      3 C3         -1.4327    1.2131    0.2237 C.ar      1 <0>         0.0000
      4 C4         -3.0302    1.8949    1.9596 C.ar      1 <0>         0.0000
      5 C5         -3.0332   -1.3274    3.7047 C.2       1 <0>         0.0000
      6 C6         -7.8180    2.0792    1.6018 C.2       1 <0>         0.0000
      7 C7         -2.9632    0.5930    2.4957 C.ar      1 <0>         0.0000
      8 C8         -3.5677   -0.0505    3.6488 C.2       1 <0>         0.0000
      9 C9         -2.0973   -0.3611    1.8941 C.ar      1 <0>         0.0000
     10 C10        -2.2673    2.1721    0.8337 C.ar      1 <0>         0.0000
     11 C11        -7.0757    2.0598    2.7643 C.2       1 <0>         0.0000
     12 C12        -8.8007    3.3713    3.0009 C.2       1 <0>         0.0000
     13 C13        -4.5263    0.4915    4.6157 C.2       1 <0>         0.0000
     14 C14        -9.6799    4.2894    3.7699 C.3       1 <0>         0.0000
     15 N1         -7.2406    0.7152   -0.5146 N.1       1 <0>         0.0000
     16 N2         -8.9132    2.9369    1.7903 N.2       1 <0>         0.0000
     17 N3         -5.5810    1.2011    4.3849 N.2       1 <0>         0.0000
     18 N4         -2.1644   -1.5176    2.6558 N.pl3     1 <0>         0.0000
     19 N5         -5.8881    1.4604    3.0717 N.pl3     1 <0>         0.0000
     20 O1         -7.6778    2.8713    3.6647 O.3       1 <0>         0.0000
     21 Br1        -2.3367    3.9328    0.0736 Br        1 <0>         0.0000
     22 H1         -0.6826   -0.8076    0.3023 H         1 <0>         0.0000
     23 H2         -0.8620    1.4801   -0.6590 H         1 <0>         0.0000
     24 H3         -3.6521    2.6582    2.4127 H         1 <0>         0.0000
     25 H4         -3.2290   -2.1197    4.4154 H         1 <0>         0.0000
     26 H5         -4.3708    0.2726    5.6705 H         1 <0>         0.0000
     27 H6        -10.0794    3.7920    4.6598 H         1 <0>         0.0000
     28 H7         -9.1285    5.1757    4.0999 H         1 <0>         0.0000
     29 H8        -10.5069    4.5984    3.1299 H         1 <0>         0.0000
     30 H9         -1.6735   -2.3782    2.4569 H         1 <0>         0.0000
     31 H10        -5.4903    0.8744    2.3372 H         1 <0>         0.0000
@<TRIPOS>BOND
     1    1    6 1
     2    1   15 3
     3    2    3 ar
     4    2    9 ar
     5    2   22 1
     6    3   10 ar
     7    3   23 1
     8    4    7 ar
     9    4   10 ar
    10    4   24 1
    11    5    8 2
    12    5   18 1
    13    5   25 1
    14    6   11 2
    15    6   16 1
    16    7    8 1
    17    7    9 ar
    18    8   13 1
    19    9   18 1
    20   10   21 1
    21   11   19 1
    22   11   20 1
    23   12   14 1
    24   12   16 2
    25   12   20 1
    26   13   17 2
    27   13   26 1
    28   14   27 1
    29   14   28 1
    30   14   29 1
    31   17   19 1
    32   18   30 1
    33   19   31 1
