@<TRIPOS>MOLECULE
*****
   40    44     0     0     0
SMALL
NO_CHARGES

@<TRIPOS>ATOM
      1 C1          1.0326    0.4829    2.2539 C.ar      1 <0>         0.0000
      2 C2          0.0676    0.5260    1.2241 C.ar      1 <0>         0.0000
      3 C3          0.9108   -0.4094    3.3171 C.ar      1 <0>         0.0000
      4 C4         -1.0391   -0.3236    1.2351 C.ar      1 <0>         0.0000
      5 C5          0.0686   -7.5121    7.2450 C.2       1 <0>         0.0000
      6 C6         -0.1961   -1.2767    3.3561 C.ar      1 <0>         0.0000
      7 C7         -0.6396   -2.3022    4.2646 C.2       1 <0>         0.0000
      8 C8         -1.1580   -1.2181    2.3035 C.ar      1 <0>         0.0000
      9 C9         -0.5308   -6.4798    6.4687 C.2       1 <0>         0.0000
     10 C10        -1.8127   -2.8158    3.7661 C.2       1 <0>         0.0000
     11 C11        -0.7671   -8.5822    7.0799 C.2       1 <0>         0.0000
     12 C12         0.1029   -5.1314    6.2590 C.2       1 <0>         0.0000
     13 C13        -0.0004   -2.8120    5.5259 C.3       1 <0>         0.0000
     14 C14        -2.6176   -3.8948    4.4180 C.3       1 <0>         0.0000
     15 C15         0.5417  -10.7494    7.6080 C.3       1 <0>         0.0000
     16 C16        -0.1024  -10.3040    8.8913 C.3       1 <0>         0.0000
     17 C17        -2.1339   -4.0123    5.8732 C.3       1 <0>         0.0000
     18 C18        -0.7685   -9.9695    7.5652 C.3       1 <0>         0.0000
     19 N1         -1.6361   -6.8901    5.8727 N.2       1 <0>         0.0000
     20 N2         -2.1315   -2.1681    2.5801 N.pl3     1 <0>         0.0000
     21 N3         -0.6703   -4.0558    5.9367 N.am      1 <0>         0.0000
     22 O1          1.3308   -5.0654    6.3831 O.2       1 <0>         0.0000
     23 O2         -1.7910   -8.2265    6.2595 O.3       1 <0>         0.0000
     24 H1          1.8836    1.1575    2.2121 H         1 <0>         0.0000
     25 H2          0.1892    1.2322    0.4071 H         1 <0>         0.0000
     26 H3          1.6617   -0.4348    4.1030 H         1 <0>         0.0000
     27 H4         -1.7789   -0.2888    0.4387 H         1 <0>         0.0000
     28 H5          0.9880   -7.4408    7.8067 H         1 <0>         0.0000
     29 H6          1.0572   -3.0375    5.3831 H         1 <0>         0.0000
     30 H7         -0.0683   -2.0747    6.3397 H         1 <0>         0.0000
     31 H8         -3.6892   -3.6582    4.4102 H         1 <0>         0.0000
     32 H9         -2.4895   -4.8597    3.9129 H         1 <0>         0.0000
     33 H10         1.4316  -10.2271    7.2711 H         1 <0>         0.0000
     34 H11         0.4992  -11.8011    7.3419 H         1 <0>         0.0000
     35 H12        -0.5892  -11.0480    9.5143 H         1 <0>         0.0000
     36 H13         0.3511   -9.4815    9.4357 H         1 <0>         0.0000
     37 H14        -2.4565   -3.1258    6.4333 H         1 <0>         0.0000
     38 H15        -2.5563   -4.8920    6.3491 H         1 <0>         0.0000
     39 H16        -1.6630  -10.5256    7.3037 H         1 <0>         0.0000
     40 H17        -2.9427   -2.3605    2.0103 H         1 <0>         0.0000
@<TRIPOS>BOND
     1    1    2 ar
     2    1    3 ar
     3    1   24 1
     4    2    4 ar
     5    2   25 1
     6    3    6 ar
     7    3   26 1
     8    4    8 ar
     9    4   27 1
    10    5    9 1
    11    5   11 2
    12    5   28 1
    13    6    7 1
    14    6    8 ar
    15    7   10 2
    16    7   13 1
    17    8   20 1
    18    9   12 1
    19    9   19 2
    20   10   14 1
    21   10   20 1
    22   11   18 1
    23   11   23 1
    24   12   21 am
    25   12   22 2
    26   13   21 1
    27   13   29 1
    28   13   30 1
    29   14   17 1
    30   14   31 1
    31   14   32 1
    32   15   16 1
    33   15   18 1
    34   15   33 1
    35   15   34 1
    36   16   18 1
    37   16   35 1
    38   16   36 1
    39   17   21 1
    40   17   37 1
    41   17   38 1
    42   18   39 1
    43   19   23 1
    44   20   40 1
