@<TRIPOS>MOLECULE
*****
   20    21     0     0     0
SMALL
NO_CHARGES

@<TRIPOS>ATOM
      1 C1          1.8004   -1.1737   -0.0097 C.ar      1 <0>         0.0000
      2 C2          0.8566   -0.3379    0.5969 C.ar      1 <0>         0.0000
      3 C3          2.7504   -1.8319    0.7702 C.ar      1 <0>         0.0000
      4 C4          0.8664   -0.1559    1.9820 C.ar      1 <0>         0.0000
      5 C5          4.5559   -5.6366    1.7568 C.2       1 <0>         0.0000
      6 C6          5.5817   -5.7260    2.6698 C.2       1 <0>         0.0000
      7 C7          2.7956   -1.6521    2.1647 C.ar      1 <0>         0.0000
      8 C8          1.8352   -0.8041    2.7402 C.ar      1 <0>         0.0000
      9 C9          4.3536   -3.6329    2.6678 C.2       1 <0>         0.0000
     10 C10         3.8629   -2.2667    3.0075 C.2       1 <0>         0.0000
     11 N1          3.8695   -4.4524    1.7643 N.2       1 <0>         0.0000
     12 O1          4.3552   -1.6870    3.9704 O.2       1 <0>         0.0000
     13 F1          1.8061   -0.6269    4.0766 F         1 <0>         0.0000
     14 S1          5.7031   -4.2744    3.5880 S.3       1 <0>         0.0000
     15 H1          1.7931   -1.3160   -1.0863 H         1 <0>         0.0000
     16 H2          0.1086    0.1710   -0.0049 H         1 <0>         0.0000
     17 H3          3.4729   -2.4885    0.3013 H         1 <0>         0.0000
     18 H4          0.1402    0.4767    2.4829 H         1 <0>         0.0000
     19 H5          4.2683   -6.4184    1.0621 H         1 <0>         0.0000
     20 H6          6.2496   -6.5610    2.8397 H         1 <0>         0.0000
@<TRIPOS>BOND
     1    1    2 ar
     2    1    3 ar
     3    1   15 1
     4    2    4 ar
     5    2   16 1
     6    3    7 ar
     7    3   17 1
     8    4    8 ar
     9    4   18 1
    10    5    6 2
    11    5   11 1
    12    5   19 1
    13    6   14 1
    14    6   20 1
    15    7    8 ar
    16    7   10 1
    17    8   13 1
    18    9   10 1
    19    9   11 2
    20    9   14 1
    21   10   12 2
