@<TRIPOS>MOLECULE
*****
   27    28     0     0     0
SMALL
NO_CHARGES

@<TRIPOS>ATOM
      1 C1          1.4544   -1.5876   -2.7168 C.1       1 <0>         0.0000
      2 C2          1.5926   -1.3869   -1.5285 C.1       1 <0>         0.0000
      3 C3          1.1021    0.0239    1.8913 C.ar      1 <0>         0.0000
      4 C4          0.9369   -0.2017    0.5248 C.ar      1 <0>         0.0000
      5 C5          2.0666   -0.6781    2.6121 C.ar      1 <0>         0.0000
      6 C6          6.0766   -5.0931    3.4697 C.ar      1 <0>         0.0000
      7 C7          2.7278   -1.8598    0.5948 C.ar      1 <0>         0.0000
      8 C8          6.0519   -2.9473    4.5545 C.ar      1 <0>         0.0000
      9 C9          6.9307   -5.5333    4.4774 C.ar      1 <0>         0.0000
     10 C10         1.7522   -1.1457   -0.1250 C.ar      1 <0>         0.0000
     11 C11         5.6128   -3.7716    3.5145 C.ar      1 <0>         0.0000
     12 C12         2.8835   -1.6228    1.9665 C.ar      1 <0>         0.0000
     13 C13         6.9190   -3.5046    5.5028 C.ar      1 <0>         0.0000
     14 C14         4.6974   -3.3057    2.4095 C.2       1 <0>         0.0000
     15 N1          7.3503   -4.7524    5.4886 N.ar      1 <0>         0.0000
     16 N2          3.8460   -2.2860    2.7619 N.am      1 <0>         0.0000
     17 O1          4.7353   -3.8306    1.3006 O.2       1 <0>         0.0000
     18 Cl1         7.4889   -2.4783    6.8129 Cl        1 <0>         0.0000
     19 H1          1.3365   -1.7682   -3.7643 H         1 <0>         0.0000
     20 H2          0.4768    0.7511    2.4015 H         1 <0>         0.0000
     21 H3          0.1879    0.3413   -0.0426 H         1 <0>         0.0000
     22 H4          2.1875   -0.4936    3.6779 H         1 <0>         0.0000
     23 H5          5.7724   -5.7458    2.6588 H         1 <0>         0.0000
     24 H6          3.3483   -2.5887    0.0935 H         1 <0>         0.0000
     25 H7          5.7833   -1.8985    4.6255 H         1 <0>         0.0000
     26 H8          7.3032   -6.5553    4.4831 H         1 <0>         0.0000
     27 H9          3.8365   -2.0282    3.7402 H         1 <0>         0.0000
@<TRIPOS>BOND
     1    1    2 3
     2    1   19 1
     3    2   10 1
     4    3    4 ar
     5    3    5 ar
     6    3   20 1
     7    4   10 ar
     8    4   21 1
     9    5   12 ar
    10    5   22 1
    11    6    9 ar
    12    6   11 ar
    13    6   23 1
    14    7   10 ar
    15    7   12 ar
    16    7   24 1
    17    8   11 ar
    18    8   13 ar
    19    8   25 1
    20    9   15 ar
    21    9   26 1
    22   11   14 1
    23   12   16 1
    24   13   15 ar
    25   13   18 1
    26   14   16 am
    27   14   17 2
    28   16   27 1
