@<TRIPOS>MOLECULE
*****
   40    43     0     0     0
SMALL
NO_CHARGES

@<TRIPOS>ATOM
      1 C1          1.7583    0.6332    2.1054 C.1       1 <0>         0.0000
      2 C2         -4.1641   -8.4420   -0.4810 C.ar      1 <0>         0.0000
      3 C3         -2.9007   -8.1964   -1.0306 C.ar      1 <0>         0.0000
      4 C4         -4.7588   -7.4863    0.3483 C.ar      1 <0>         0.0000
      5 C5         -2.2386   -6.9963   -0.7677 C.ar      1 <0>         0.0000
      6 C6         -4.0996   -6.2870    0.6295 C.ar      1 <0>         0.0000
      7 C7          0.9868   -0.2505    2.9130 C.2       1 <0>         0.0000
      8 C8         -1.5219   -2.7120    0.6251 C.2       1 <0>         0.0000
      9 C9          1.4023   -0.7606    4.1865 C.2       1 <0>         0.0000
     10 C10        -2.8477   -6.0440    0.0562 C.ar      1 <0>         0.0000
     11 C11         0.4890   -1.6015    4.7528 C.2       1 <0>         0.0000
     12 C12        -0.4216   -3.6173    0.7964 C.2       1 <0>         0.0000
     13 C13        -0.2440   -0.7641    2.5104 C.2       1 <0>         0.0000
     14 C14        -2.5891   -3.5437    0.2956 C.2       1 <0>         0.0000
     15 C15        -1.5516   -1.2513    0.6098 C.2       1 <0>         0.0000
     16 C16         2.5599   -0.5059    5.1172 C.3       1 <0>         0.0000
     17 C17         0.8516   -2.0183    6.1526 C.3       1 <0>         0.0000
     18 C18         2.3541   -1.5994    6.2091 C.3       1 <0>         0.0000
     19 C19         1.0148   -3.3052    1.0785 C.3       1 <0>         0.0000
     20 N1          2.4199    1.3501    1.4651 N.1       1 <0>         0.0000
     21 N2         -0.8071   -4.8747    0.6057 N.2       1 <0>         0.0000
     22 N3         -0.9157   -0.4211    1.3620 N.2       1 <0>         0.0000
     23 N4         -2.1498   -4.8305    0.3247 N.pl3     1 <0>         0.0000
     24 S1         -0.9106   -1.8395    3.7517 S.3       1 <0>         0.0000
     25 Cl1        -4.1910   -3.0847   -0.1403 Cl        1 <0>         0.0000
     26 H1         -4.6783   -9.3756   -0.6922 H         1 <0>         0.0000
     27 H2         -2.4305   -8.9383   -1.6700 H         1 <0>         0.0000
     28 H3         -5.7320   -7.6774    0.7918 H         1 <0>         0.0000
     29 H4         -1.2577   -6.7902   -1.1825 H         1 <0>         0.0000
     30 H5         -4.5469   -5.5586    1.2972 H         1 <0>         0.0000
     31 H6         -2.1685   -0.7979   -0.1693 H         1 <0>         0.0000
     32 H7          3.5348   -0.5858    4.6263 H         1 <0>         0.0000
     33 H8          2.4957    0.5061    5.5368 H         1 <0>         0.0000
     34 H9          0.2493   -1.4716    6.8900 H         1 <0>         0.0000
     35 H10         0.7123   -3.0864    6.3469 H         1 <0>         0.0000
     36 H11         2.9716   -2.4687    5.9638 H         1 <0>         0.0000
     37 H12         2.6485   -1.2559    7.2041 H         1 <0>         0.0000
     38 H13         1.1800   -3.1107    2.1422 H         1 <0>         0.0000
     39 H14         1.6349   -4.1545    0.7834 H         1 <0>         0.0000
     40 H15         1.3390   -2.4177    0.5285 H         1 <0>         0.0000
@<TRIPOS>BOND
     1    1    7 1
     2    1   20 3
     3    2    4 ar
     4    2    3 ar
     5    2   26 1
     6    3    5 ar
     7    3   27 1
     8    4    6 ar
     9    4   28 1
    10    5   10 ar
    11    5   29 1
    12    6   10 ar
    13    6   30 1
    14    7    9 1
    15    7   13 2
    16    8   12 1
    17    8   14 2
    18    8   15 1
    19    9   11 2
    20    9   16 1
    21   10   23 1
    22   11   17 1
    23   11   24 1
    24   12   19 1
    25   12   21 2
    26   13   22 1
    27   13   24 1
    28   14   23 1
    29   14   25 1
    30   15   22 2
    31   15   31 1
    32   16   18 1
    33   16   32 1
    34   16   33 1
    35   17   18 1
    36   17   34 1
    37   17   35 1
    38   18   36 1
    39   18   37 1
    40   19   38 1
    41   19   39 1
    42   19   40 1
    43   21   23 1
