@<TRIPOS>MOLECULE
*****
   41    42     0     0     0
SMALL
NO_CHARGES

@<TRIPOS>ATOM
      1 C1          0.9149   -0.5678   -1.1222 C.2       1 <0>         0.0000
      2 C2         -1.2149    1.0794    2.8882 C.3       1 <0>         0.0000
      3 C3         -1.2189   -0.4711    2.8057 C.3       1 <0>         0.0000
      4 C4         -0.4465    1.5563    1.6403 C.3       1 <0>         0.0000
      5 C5         -0.4551   -0.8311    1.5129 C.3       1 <0>         0.0000
      6 C6         -1.0728    1.8608   -1.8752 C.3       1 <0>         0.0000
      7 C7          0.3094    1.8125   -1.2052 C.3       1 <0>         0.0000
      8 C8         -1.9688    0.4472   -0.1016 C.3       1 <0>         0.0000
      9 C9         -0.5910    0.4103    0.6065 C.3       1 <0>         0.0000
     10 C10         1.2216   -2.1083   -3.7077 C.3       1 <0>         0.0000
     11 C11         2.9993   -0.3753   -4.1139 C.3       1 <0>         0.0000
     12 C12         3.3099   -2.0417   -2.2542 C.3       1 <0>         0.0000
     13 C13         2.2913   -1.2263   -3.0563 C.3       1 <0>         0.0000
     14 N1         -2.1887    1.6247   -0.9504 N.3       1 <0>         0.0000
     15 N2          0.4468    0.5479   -0.4557 N.am      1 <0>         0.0000
     16 O1          0.7240   -1.7305   -0.7878 O.2       1 <0>         0.0000
     17 O2          1.6640   -0.2052   -2.2020 O.3       1 <0>         0.0000
     18 H1         -2.2377    1.4702    2.8840 H         1 <0>         0.0000
     19 H2         -0.7450    1.4473    3.8046 H         1 <0>         0.0000
     20 H3         -0.7477   -0.9316    3.6787 H         1 <0>         0.0000
     21 H4         -2.2442   -0.8524    2.7685 H         1 <0>         0.0000
     22 H5         -0.8113    2.5243    1.2862 H         1 <0>         0.0000
     23 H6          0.6197    1.6758    1.8618 H         1 <0>         0.0000
     24 H7          0.6054   -0.9935    1.7249 H         1 <0>         0.0000
     25 H8         -0.8242   -1.7390    1.0388 H         1 <0>         0.0000
     26 H9         -1.2254    2.8265   -2.3700 H         1 <0>         0.0000
     27 H10        -1.1077    1.0869   -2.6528 H         1 <0>         0.0000
     28 H11         1.1061    1.8850   -1.9418 H         1 <0>         0.0000
     29 H12         0.4292    2.6439   -0.5057 H         1 <0>         0.0000
     30 H13        -2.0448   -0.4479   -0.7306 H         1 <0>         0.0000
     31 H14        -2.7812    0.3972    0.6303 H         1 <0>         0.0000
     32 H15         0.7181   -2.7321   -2.9693 H         1 <0>         0.0000
     33 H16         0.4769   -1.4868   -4.2160 H         1 <0>         0.0000
     34 H17         1.6910   -2.7554   -4.4562 H         1 <0>         0.0000
     35 H18         3.7333    0.2877   -3.6461 H         1 <0>         0.0000
     36 H19         2.2771    0.2385   -4.6609 H         1 <0>         0.0000
     37 H20         3.5190   -1.0196   -4.8292 H         1 <0>         0.0000
     38 H21         4.0180   -1.3737   -1.7532 H         1 <0>         0.0000
     39 H22         2.8180   -2.6623   -1.5053 H         1 <0>         0.0000
     40 H23         3.8748   -2.6879   -2.9345 H         1 <0>         0.0000
     41 H24        -2.3152    2.4453   -0.3614 H         1 <0>         0.0000
@<TRIPOS>BOND
     1    1   15 am
     2    1   16 2
     3    1   17 1
     4    2    3 1
     5    2    4 1
     6    2   18 1
     7    2   19 1
     8    3    5 1
     9    3   20 1
    10    3   21 1
    11    4    9 1
    12    4   22 1
    13    4   23 1
    14    5    9 1
    15    5   24 1
    16    5   25 1
    17    6    7 1
    18    6   14 1
    19    6   26 1
    20    6   27 1
    21    7   15 1
    22    7   28 1
    23    7   29 1
    24    8    9 1
    25    8   14 1
    26    8   30 1
    27    8   31 1
    28    9   15 1
    29   10   13 1
    30   10   32 1
    31   10   33 1
    32   10   34 1
    33   11   13 1
    34   11   35 1
    35   11   36 1
    36   11   37 1
    37   12   13 1
    38   12   38 1
    39   12   39 1
    40   12   40 1
    41   13   17 1
    42   14   41 1
