@<TRIPOS>MOLECULE
*****
   30    31     0     0     0
SMALL
NO_CHARGES

@<TRIPOS>ATOM
      1 C1         -1.1448   -0.6938    3.1866 C.ar      1 <0>         0.0000
      2 C2         -0.8895   -0.3823    1.8486 C.ar      1 <0>         0.0000
      3 C3         -2.4170   -1.0695    3.6216 C.ar      1 <0>         0.0000
      4 C4         -3.2219   -0.8132    1.3362 C.ar      1 <0>         0.0000
      5 C5          3.2603    1.0601   -2.7501 C.2       1 <0>         0.0000
      6 C6          1.4094    1.4557   -1.1963 C.2       1 <0>         0.0000
      7 C7         -1.9321   -0.4431    0.9118 C.ar      1 <0>         0.0000
      8 C8          1.9799    0.7037   -2.2262 C.2       1 <0>         0.0000
      9 C9         -3.4415   -1.1265    2.6734 C.ar      1 <0>         0.0000
     10 C10         3.9041    2.1403   -2.2364 C.2       1 <0>         0.0000
     11 C11         2.1172    2.5963   -0.6540 C.2       1 <0>         0.0000
     12 C12         0.1206    1.1352   -0.6238 C.2       1 <0>         0.0000
     13 C13         5.2385    2.6512   -2.6738 C.3       1 <0>         0.0000
     14 N1         -0.5494    0.1102   -1.0554 N.2       1 <0>         0.0000
     15 N2         -1.7859   -0.1525   -0.4704 N.pl3     1 <0>         0.0000
     16 O1          1.7516    3.3267    0.2446 O.2       1 <0>         0.0000
     17 O2          3.3723    2.8838   -1.2379 O.3       1 <0>         0.0000
     18 O3          1.3736   -0.3563   -2.7559 O.3       1 <0>         0.0000
     19 Cl1        -5.0586   -1.5933    3.1797 Cl        1 <0>         0.0000
     20 H1         -0.3302   -0.6465    3.9042 H         1 <0>         0.0000
     21 H2          0.1153   -0.1114    1.5495 H         1 <0>         0.0000
     22 H3         -2.6122   -1.3086    4.6613 H         1 <0>         0.0000
     23 H4         -4.0430   -0.8452    0.6259 H         1 <0>         0.0000
     24 H5          3.6981    0.4743   -3.5489 H         1 <0>         0.0000
     25 H6         -0.2515    1.7833    0.1705 H         1 <0>         0.0000
     26 H7          5.1487    3.6848   -3.0240 H         1 <0>         0.0000
     27 H8          5.6467    2.0347   -3.4762 H         1 <0>         0.0000
     28 H9          5.9357    2.6518   -1.8294 H         1 <0>         0.0000
     29 H10        -2.2780   -0.8230   -1.0495 H         1 <0>         0.0000
     30 H11         0.4995   -0.4757   -2.2684 H         1 <0>         0.0000
@<TRIPOS>BOND
     1    1    2 ar
     2    1    3 ar
     3    1   20 1
     4    2    7 ar
     5    2   21 1
     6    3    9 ar
     7    3   22 1
     8    4    7 ar
     9    4    9 ar
    10    4   23 1
    11    5    8 1
    12    5   10 2
    13    5   24 1
    14    6    8 2
    15    6   11 1
    16    6   12 1
    17    7   15 1
    18    8   18 1
    19    9   19 1
    20   10   13 1
    21   10   17 1
    22   11   16 2
    23   11   17 1
    24   12   14 2
    25   12   25 1
    26   13   26 1
    27   13   27 1
    28   13   28 1
    29   14   15 1
    30   15   29 1
    31   18   30 1
