@<TRIPOS>MOLECULE
*****
   44    46     0     0     0
SMALL
NO_CHARGES

@<TRIPOS>ATOM
      1 C1         -0.8667    1.5553   -5.3544 C.ar      1 <0>         0.0000
      2 C2         -2.0251    1.8423   -6.0833 C.ar      1 <0>         0.0000
      3 C3         -0.9887    0.8942   -4.1330 C.ar      1 <0>         0.0000
      4 C4         -3.2538    1.4516   -5.5460 C.ar      1 <0>         0.0000
      5 C5         -2.2683    0.5444   -3.6771 C.ar      1 <0>         0.0000
      6 C6         -0.6176    1.9282    0.1258 C.3       1 <0>         0.0000
      7 C7         -0.4065    0.8948    1.2388 C.3       1 <0>         0.0000
      8 C8         -0.1527   -1.5766    1.8043 C.3       1 <0>         0.0000
      9 C9         -1.7355    1.4957   -0.8220 C.3       1 <0>         0.0000
     10 C10         1.3092   -1.5204    2.2799 C.3       1 <0>         0.0000
     11 C11        -1.4025   -0.8300   -0.2815 C.3       1 <0>         0.0000
     12 C12         1.1198   -0.7108   -0.0155 C.3       1 <0>         0.0000
     13 C13        -0.2436   -0.5314    0.6740 C.3       1 <0>         0.0000
     14 C14         4.5900   -0.6018    1.9604 C.3       1 <0>         0.0000
     15 C15        -2.4536   -0.2149   -2.3768 C.3       1 <0>         0.0000
     16 N1         -3.3846    0.8212   -4.3693 N.ar      1 <0>         0.0000
     17 N2         -1.4732    0.1556   -1.3591 N.3       1 <0>         0.0000
     18 N3          2.0388   -0.9065    1.1364 N.pl3     1 <0>         0.0000
     19 O1          3.8927   -1.0311   -0.5732 O.2       1 <0>         0.0000
     20 O2          3.6790   -2.9292    1.1125 O.2       1 <0>         0.0000
     21 S1          3.5704   -1.5007    0.7785 S.o2      1 <0>         0.0000
     22 H1          0.1121    1.8399   -5.7328 H         1 <0>         0.0000
     23 H2         -1.9822    2.3561   -7.0394 H         1 <0>         0.0000
     24 H3         -0.1244    0.6508   -3.5233 H         1 <0>         0.0000
     25 H4         -4.1798    1.6585   -6.0812 H         1 <0>         0.0000
     26 H5         -0.8654    2.9028    0.5612 H         1 <0>         0.0000
     27 H6          0.3048    2.0619   -0.4496 H         1 <0>         0.0000
     28 H7          0.4621    1.1630    1.8497 H         1 <0>         0.0000
     29 H8         -1.2806    0.9018    1.9036 H         1 <0>         0.0000
     30 H9         -0.3714   -2.5718    1.4013 H         1 <0>         0.0000
     31 H10        -0.8588   -1.3814    2.6163 H         1 <0>         0.0000
     32 H11        -2.7074    1.5162   -0.2891 H         1 <0>         0.0000
     33 H12        -1.8137    2.1974   -1.6572 H         1 <0>         0.0000
     34 H13         1.4266   -0.8822    3.1621 H         1 <0>         0.0000
     35 H14         1.7019   -2.5135    2.5125 H         1 <0>         0.0000
     36 H15        -1.2622   -1.8216   -0.7261 H         1 <0>         0.0000
     37 H16        -2.3466   -0.8655    0.2997 H         1 <0>         0.0000
     38 H17         1.0975   -1.5863   -0.6761 H         1 <0>         0.0000
     39 H18         1.4397    0.1465   -0.6036 H         1 <0>         0.0000
     40 H19         5.6133   -0.9585    1.8298 H         1 <0>         0.0000
     41 H20         4.5135    0.4626    1.7393 H         1 <0>         0.0000
     42 H21         4.2396   -0.8243    2.9695 H         1 <0>         0.0000
     43 H22        -3.4948   -0.0722   -2.0420 H         1 <0>         0.0000
     44 H23        -2.3340   -1.2846   -2.5889 H         1 <0>         0.0000
@<TRIPOS>BOND
     1    1    2 ar
     2    1    3 ar
     3    1   22 1
     4    2    4 ar
     5    2   23 1
     6    3    5 ar
     7    3   24 1
     8    4   16 ar
     9    4   25 1
    10    5   15 1
    11    5   16 ar
    12    6    7 1
    13    6    9 1
    14    6   26 1
    15    6   27 1
    16    7   13 1
    17    7   28 1
    18    7   29 1
    19    8   10 1
    20    8   13 1
    21    8   30 1
    22    8   31 1
    23    9   17 1
    24    9   32 1
    25    9   33 1
    26   10   18 1
    27   10   34 1
    28   10   35 1
    29   11   13 1
    30   11   17 1
    31   11   36 1
    32   11   37 1
    33   12   13 1
    34   12   18 1
    35   12   38 1
    36   12   39 1
    37   14   21 1
    38   14   40 1
    39   14   41 1
    40   14   42 1
    41   15   17 1
    42   15   43 1
    43   15   44 1
    44   18   21 1
    45   19   21 2
    46   20   21 2
