@<TRIPOS>MOLECULE
*****
   20    20     0     0     0
SMALL
NO_CHARGES

@<TRIPOS>ATOM
      1 C1          0.1892    0.6706    1.5193 C.ar      1 <0>         0.0000
      2 C2          0.8851    1.4198    2.4781 C.ar      1 <0>         0.0000
      3 C3          0.4263    1.3443    3.7906 C.ar      1 <0>         0.0000
      4 C4         -1.2191   -0.0851    3.1272 C.ar      1 <0>         0.0000
      5 C5          1.0482    2.1357    4.9187 C.2       1 <0>         0.0000
      6 C6         -2.7325   -0.8867    4.7704 C.3       1 <0>         0.0000
      7 C7          2.8904    2.2746    6.3834 C.3       1 <0>         0.0000
      8 N1         -0.8591   -0.0845    1.8324 N.ar      1 <0>         0.0000
      9 N2         -0.6303    0.5905    4.1193 N.ar      1 <0>         0.0000
     10 O1          0.5510    3.1388    5.3822 O.2       1 <0>         0.0000
     11 O2         -2.2806   -0.8545    3.4037 O.3       1 <0>         0.0000
     12 O3          2.1974    1.5729    5.3238 O.3       1 <0>         0.0000
     13 Br1         2.3694    2.5049    1.9739 Br        1 <0>         0.0000
     14 H1          0.4935    0.6862    0.4745 H         1 <0>         0.0000
     15 H2         -3.5979   -1.5491    4.7646 H         1 <0>         0.0000
     16 H3         -3.0148    0.1136    5.1077 H         1 <0>         0.0000
     17 H4         -1.9517   -1.2799    5.4262 H         1 <0>         0.0000
     18 H5          3.7861    1.6868    6.5789 H         1 <0>         0.0000
     19 H6          2.2591    2.3311    7.2726 H         1 <0>         0.0000
     20 H7          3.1504    3.2829    6.0546 H         1 <0>         0.0000
@<TRIPOS>BOND
     1    1    2 ar
     2    1    8 ar
     3    1   14 1
     4    2    3 ar
     5    2   13 1
     6    3    5 1
     7    3    9 ar
     8    4    8 ar
     9    4    9 ar
    10    4   11 1
    11    5   10 2
    12    5   12 1
    13    6   11 1
    14    6   15 1
    15    6   16 1
    16    6   17 1
    17    7   12 1
    18    7   18 1
    19    7   19 1
    20    7   20 1
