@<TRIPOS>MOLECULE
*****
   31    33     0     0     0
SMALL
NO_CHARGES

@<TRIPOS>ATOM
      1 C1         -8.4560    2.7894    1.0595 C.1       1 <0>         0.0000
      2 C2         -2.1290   -2.0866    1.6863 C.ar      1 <0>         0.0000
      3 C3         -0.7930   -1.7838    1.4400 C.ar      1 <0>         0.0000
      4 C4         -1.1613    0.5897    1.9497 C.ar      1 <0>         0.0000
      5 C5         -4.7326    0.2386    2.6846 C.2       1 <0>         0.0000
      6 C6         -7.9526    3.9148    1.7556 C.2       1 <0>         0.0000
      7 C7         -2.5121    0.2955    2.2079 C.ar      1 <0>         0.0000
      8 C8         -3.6479    1.1086    2.6016 C.2       1 <0>         0.0000
      9 C9         -2.9734   -1.0394    2.0701 C.ar      1 <0>         0.0000
     10 C10        -0.3312   -0.4580    1.5739 C.ar      1 <0>         0.0000
     11 C11        -6.7258    3.9818    2.3841 C.2       1 <0>         0.0000
     12 C12        -7.8029    5.8577    2.6453 C.2       1 <0>         0.0000
     13 C13        -3.5641    2.5301    2.9024 C.2       1 <0>         0.0000
     14 C14        -7.9475    7.2501    3.1422 C.3       1 <0>         0.0000
     15 N1         -8.7854    1.8092    0.5149 N.1       1 <0>         0.0000
     16 N2         -8.6151    5.1370    1.9468 N.2       1 <0>         0.0000
     17 N3         -4.4818    3.4414    2.9024 N.2       1 <0>         0.0000
     18 N4         -4.3256   -1.0377    2.3751 N.pl3     1 <0>         0.0000
     19 N5         -5.7528    3.0355    2.5560 N.pl3     1 <0>         0.0000
     20 O1         -6.6084    5.1998    2.9561 O.3       1 <0>         0.0000
     21 Br1         1.5185   -0.0974    1.2076 Br        1 <0>         0.0000
     22 H1         -2.4921   -3.1052    1.5801 H         1 <0>         0.0000
     23 H2         -0.1033   -2.5656    1.1411 H         1 <0>         0.0000
     24 H3         -0.7744    1.6001    2.0304 H         1 <0>         0.0000
     25 H4         -5.7488    0.4157    3.0085 H         1 <0>         0.0000
     26 H5         -2.5779    2.9155    3.1539 H         1 <0>         0.0000
     27 H6         -7.8683    7.2863    4.2335 H         1 <0>         0.0000
     28 H7         -7.1661    7.8954    2.7276 H         1 <0>         0.0000
     29 H8         -8.9238    7.6295    2.8395 H         1 <0>         0.0000
     30 H9         -4.9343   -1.8444    2.3503 H         1 <0>         0.0000
     31 H10        -5.8462    2.2296    1.9343 H         1 <0>         0.0000
@<TRIPOS>BOND
     1    1    6 1
     2    1   15 3
     3    2    3 ar
     4    2    9 ar
     5    2   22 1
     6    3   10 ar
     7    3   23 1
     8    4    7 ar
     9    4   10 ar
    10    4   24 1
    11    5    8 2
    12    5   18 1
    13    5   25 1
    14    6   11 2
    15    6   16 1
    16    7    8 1
    17    7    9 ar
    18    8   13 1
    19    9   18 1
    20   10   21 1
    21   11   19 1
    22   11   20 1
    23   12   14 1
    24   12   16 2
    25   12   20 1
    26   13   17 2
    27   13   26 1
    28   14   27 1
    29   14   28 1
    30   14   29 1
    31   17   19 1
    32   18   30 1
    33   19   31 1
