@<TRIPOS>MOLECULE
*****
   31    33     0     0     0
SMALL
NO_CHARGES

@<TRIPOS>ATOM
      1 C1          9.5825    3.7309   -2.0718 C.ar      1 <0>         0.0000
      2 C2          8.7550    4.8798   -2.0835 C.ar      1 <0>         0.0000
      3 C3          9.0806    2.5159   -1.6439 C.ar      1 <0>         0.0000
      4 C4          4.1921   -2.0795   -1.3848 C.ar      1 <0>         0.0000
      5 C5          7.4357    4.7982   -1.6833 C.ar      1 <0>         0.0000
      6 C6          3.2932   -1.9765   -2.4426 C.ar      1 <0>         0.0000
      7 C7          5.8668   -0.9207   -2.6829 C.ar      1 <0>         0.0000
      8 C8          5.1321    2.3294   -0.5012 C.ar      1 <0>         0.0000
      9 C9          7.7358    2.4133   -1.2083 C.ar      1 <0>         0.0000
     10 C10         5.4825   -1.5347   -1.4803 C.ar      1 <0>         0.0000
     11 C11         6.8948    3.5629   -1.2444 C.ar      1 <0>         0.0000
     12 C12         3.6779   -1.3529   -3.6330 C.ar      1 <0>         0.0000
     13 C13         4.9784   -0.8354   -3.7518 C.ar      1 <0>         0.0000
     14 C14         7.1091    1.2076   -0.7289 C.ar      1 <0>         0.0000
     15 C15         6.3895   -1.7090   -0.3323 C.2       1 <0>         0.0000
     16 N1          5.5727    3.5077   -0.8797 N.ar      1 <0>         0.0000
     17 N2          5.8313    1.1674   -0.4025 N.ar      1 <0>         0.0000
     18 N3          7.4561   -1.0961    0.0487 N.2       1 <0>         0.0000
     19 N4          7.8754    0.0465   -0.6429 N.pl3     1 <0>         0.0000
     20 Cl1         2.5288   -1.2421   -4.9390 Cl        1 <0>         0.0000
     21 Cl2         5.5152   -0.0635   -5.2238 Cl        1 <0>         0.0000
     22 H1         10.6124    3.8040   -2.4099 H         1 <0>         0.0000
     23 H2          9.1619    5.8293   -2.4213 H         1 <0>         0.0000
     24 H3          9.7228    1.6399   -1.6724 H         1 <0>         0.0000
     25 H4          3.8817   -2.5740   -0.4682 H         1 <0>         0.0000
     26 H5          6.7784    5.6623   -1.6978 H         1 <0>         0.0000
     27 H6          2.2898   -2.3814   -2.3588 H         1 <0>         0.0000
     28 H7          6.8638   -0.5156   -2.7994 H         1 <0>         0.0000
     29 H8          4.0818    2.2591   -0.2225 H         1 <0>         0.0000
     30 H9          6.1462   -2.5517    0.3164 H         1 <0>         0.0000
     31 H10         8.8391    0.2318   -0.3909 H         1 <0>         0.0000
@<TRIPOS>BOND
     1    1    2 ar
     2    1    3 ar
     3    1   22 1
     4    2    5 ar
     5    2   23 1
     6    3    9 ar
     7    3   24 1
     8    4    6 ar
     9    4   10 ar
    10    4   25 1
    11    5   11 ar
    12    5   26 1
    13    6   12 ar
    14    6   27 1
    15    7   10 ar
    16    7   13 ar
    17    7   28 1
    18    8   16 ar
    19    8   17 ar
    20    8   29 1
    21    9   11 ar
    22    9   14 ar
    23   10   15 1
    24   11   16 ar
    25   12   13 ar
    26   12   20 1
    27   13   21 1
    28   14   17 ar
    29   14   19 1
    30   15   18 2
    31   15   30 1
    32   18   19 1
    33   19   31 1
