@<TRIPOS>MOLECULE
*****
   29    31     0     0     0
SMALL
NO_CHARGES

@<TRIPOS>ATOM
      1 C1          2.7830    5.1644   -1.5704 C.ar      1 <0>         0.0000
      2 C2          2.1597    5.6851   -0.4292 C.ar      1 <0>         0.0000
      3 C3          2.4729    3.8697   -2.0020 C.ar      1 <0>         0.0000
      4 C4          4.7505    2.8294    3.1350 C.2       1 <0>         0.0000
      5 C5          1.2600    4.9082    0.3010 C.ar      1 <0>         0.0000
      6 C6          1.5457    3.0985   -1.2977 C.ar      1 <0>         0.0000
      7 C7          0.6303    3.5254    3.8684 C.ar      1 <0>         0.0000
      8 C8          1.5839    3.8834    4.8145 C.ar      1 <0>         0.0000
      9 C9          5.6403    3.1798    4.0924 C.2       1 <0>         0.0000
     10 C10         2.3646    2.7390    2.3678 C.ar      1 <0>         0.0000
     11 C11         3.3385    3.0602    3.3266 C.ar      1 <0>         0.0000
     12 C12         0.9696    3.6023   -0.1242 C.ar      1 <0>         0.0000
     13 C13         1.0167    2.9897    2.6253 C.ar      1 <0>         0.0000
     14 C14         2.9351    3.6512    4.5411 C.ar      1 <0>         0.0000
     15 C15         5.2153    3.7980    5.3473 C.2       1 <0>         0.0000
     16 N1         -0.0259    2.7870    0.5135 N.2       1 <0>         0.0000
     17 N2         -0.0458    2.5816    1.7496 N.2       1 <0>         0.0000
     18 O1          5.9435    4.1447    6.2516 O.2       1 <0>         0.0000
     19 O2          3.8411    4.0010    5.5021 O.3       1 <0>         0.0000
     20 H1          3.4903    5.7711   -2.1291 H         1 <0>         0.0000
     21 H2          2.3778    6.6993   -0.1052 H         1 <0>         0.0000
     22 H3          2.9379    3.4679   -2.8983 H         1 <0>         0.0000
     23 H4          5.0869    2.3729    2.2067 H         1 <0>         0.0000
     24 H5          0.7808    5.3106    1.1879 H         1 <0>         0.0000
     25 H6          1.2674    2.1044   -1.6370 H         1 <0>         0.0000
     26 H7         -0.4280    3.6635    4.0699 H         1 <0>         0.0000
     27 H8          1.3035    4.3200    5.7678 H         1 <0>         0.0000
     28 H9          6.7083    3.0258    3.9863 H         1 <0>         0.0000
     29 H10         2.6730    2.2923    1.4280 H         1 <0>         0.0000
@<TRIPOS>BOND
     1    1    3 ar
     2    1    2 ar
     3    1   20 1
     4    2    5 ar
     5    2   21 1
     6    3    6 ar
     7    3   22 1
     8    4   11 1
     9    4    9 2
    10    4   23 1
    11    5   12 ar
    12    5   24 1
    13    6   12 ar
    14    6   25 1
    15    7    8 ar
    16    7   13 ar
    17    7   26 1
    18    8   14 ar
    19    8   27 1
    20    9   15 1
    21    9   28 1
    22   10   11 ar
    23   10   13 ar
    24   10   29 1
    25   11   14 ar
    26   12   16 1
    27   13   17 1
    28   14   19 1
    29   15   18 2
    30   15   19 1
    31   16   17 2
