@<TRIPOS>MOLECULE
*****
   32    33     0     0     0
SMALL
NO_CHARGES

@<TRIPOS>ATOM
      1 C1          4.0382   -2.4472    0.2342 C.1       1 <0>         0.0000
      2 C2          2.4537   -2.3547    2.1146 C.ar      1 <0>         0.0000
      3 C3          2.2818   -0.7184    0.3190 C.ar      1 <0>         0.0000
      4 C4          1.3671   -1.7578    2.7482 C.ar      1 <0>         0.0000
      5 C5          1.1996   -0.1288    0.9562 C.ar      1 <0>         0.0000
      6 C6         -4.2647    4.6756    1.9179 C.ar      1 <0>         0.0000
      7 C7          2.9187   -1.8379    0.8938 C.ar      1 <0>         0.0000
      8 C8          0.7254   -0.6409    2.1825 C.ar      1 <0>         0.0000
      9 C9         -3.2006    4.2328    1.1229 C.ar      1 <0>         0.0000
     10 C10        -4.5276    3.9807    3.1056 C.ar      1 <0>         0.0000
     11 C11        -2.7878    2.5888    2.6290 C.ar      1 <0>         0.0000
     12 C12        -0.4128   -0.0384    2.8741 C.2       1 <0>         0.0000
     13 C13        -2.8324    4.9067   -0.1712 C.3       1 <0>         0.0000
     14 C14        -5.6455    4.3707    4.0346 C.3       1 <0>         0.0000
     15 N1          4.9478   -2.9423   -0.3019 N.1       1 <0>         0.0000
     16 N2         -2.4507    3.1773    1.4789 N.ar      1 <0>         0.0000
     17 N3         -3.7834    2.9263    3.4674 N.ar      1 <0>         0.0000
     18 N4         -1.0215    0.9852    2.3796 N.2       1 <0>         0.0000
     19 N5         -2.0590    1.4911    3.0636 N.pl3     1 <0>         0.0000
     20 H1          2.9450   -3.2165    2.5558 H         1 <0>         0.0000
     21 H2          2.6463   -0.3239   -0.6247 H         1 <0>         0.0000
     22 H3          1.0111   -2.1618    3.6931 H         1 <0>         0.0000
     23 H4          0.7026    0.7328    0.5222 H         1 <0>         0.0000
     24 H5         -4.8666    5.5291    1.6241 H         1 <0>         0.0000
     25 H6         -0.7226   -0.4931    3.8252 H         1 <0>         0.0000
     26 H7         -1.7976    5.2602   -0.1242 H         1 <0>         0.0000
     27 H8         -2.8886    4.1868   -0.9937 H         1 <0>         0.0000
     28 H9         -3.4884    5.7520   -0.3915 H         1 <0>         0.0000
     29 H10        -6.3362    3.5312    4.1616 H         1 <0>         0.0000
     30 H11        -5.2429    4.6103    5.0239 H         1 <0>         0.0000
     31 H12        -6.2010    5.2335    3.6598 H         1 <0>         0.0000
     32 H13        -2.3652    1.0859    3.9488 H         1 <0>         0.0000
@<TRIPOS>BOND
     1    1    7 1
     2    1   15 3
     3    2    4 ar
     4    2    7 ar
     5    2   20 1
     6    3    5 ar
     7    3    7 ar
     8    3   21 1
     9    4    8 ar
    10    4   22 1
    11    5    8 ar
    12    5   23 1
    13    6   10 ar
    14    6    9 ar
    15    6   24 1
    16    8   12 1
    17    9   13 1
    18    9   16 ar
    19   10   14 1
    20   10   17 ar
    21   11   17 ar
    22   11   16 ar
    23   11   19 1
    24   12   18 2
    25   12   25 1
    26   13   26 1
    27   13   27 1
    28   13   28 1
    29   14   29 1
    30   14   30 1
    31   14   31 1
    32   18   19 1
    33   19   32 1
