@<TRIPOS>MOLECULE
*****
   35    37     0     0     0
SMALL
NO_CHARGES

@<TRIPOS>ATOM
      1 C1         -1.0314   -2.2662    0.8476 C.ar      1 <0>         0.0000
      2 C2         -0.1686   -1.2262    0.4258 C.ar      1 <0>         0.0000
      3 C3         -0.5918   -3.5717    0.8048 C.ar      1 <0>         0.0000
      4 C4          1.1020   -1.5061   -0.0374 C.ar      1 <0>         0.0000
      5 C5          1.1684   -5.2338    0.3043 C.ar      1 <0>         0.0000
      6 C6          2.4328   -5.5377   -0.1400 C.ar      1 <0>         0.0000
      7 C7          0.7102   -3.8890    0.3330 C.ar      1 <0>         0.0000
      8 C8          1.5815   -2.8444   -0.1164 C.ar      1 <0>         0.0000
      9 C9          2.9029   -3.1777   -0.5914 C.ar      1 <0>         0.0000
     10 C10         5.7756   -1.1825   -1.8005 C.ar      1 <0>         0.0000
     11 C11         3.3084   -4.5162   -0.5849 C.ar      1 <0>         0.0000
     12 C12         6.9586   -0.7233   -1.1917 C.ar      1 <0>         0.0000
     13 C13         5.4987   -0.6838   -3.0872 C.ar      1 <0>         0.0000
     14 C14         7.8022    0.1935   -1.8106 C.ar      1 <0>         0.0000
     15 C15         6.3444    0.2192   -3.7277 C.ar      1 <0>         0.0000
     16 C16         7.4970    0.6683   -3.0865 C.ar      1 <0>         0.0000
     17 C17         3.7494   -2.1236   -1.1548 C.2       1 <0>         0.0000
     18 C18         5.5746   -5.0310   -0.1305 C.3       1 <0>         0.0000
     19 N1          5.0359   -2.1685   -1.1492 N.2       1 <0>         0.0000
     20 O1          4.5163   -4.9103   -1.0966 O.3       1 <0>         0.0000
     21 F1          7.2844   -1.1682    0.0324 F         1 <0>         0.0000
     22 F2          4.4109   -1.1133   -3.7578 F         1 <0>         0.0000
     23 F3          8.9102    0.6230   -1.1882 F         1 <0>         0.0000
     24 F4          6.0514    0.6610   -4.9604 F         1 <0>         0.0000
     25 F5          8.3070    1.5491   -3.6901 F         1 <0>         0.0000
     26 H1         -2.0282   -2.0312    1.2103 H         1 <0>         0.0000
     27 H2         -0.5064   -0.1944    0.4752 H         1 <0>         0.0000
     28 H3         -1.2367   -4.3816    1.1375 H         1 <0>         0.0000
     29 H4          1.7416   -0.6779   -0.3216 H         1 <0>         0.0000
     30 H5          0.5000   -6.0249    0.6364 H         1 <0>         0.0000
     31 H6          2.7863   -6.5637   -0.1856 H         1 <0>         0.0000
     32 H7          3.2200   -1.2739   -1.5952 H         1 <0>         0.0000
     33 H8          6.4472   -5.3817   -0.6840 H         1 <0>         0.0000
     34 H9          5.3094   -5.7639    0.6419 H         1 <0>         0.0000
     35 H10         5.7914   -4.0591    0.3205 H         1 <0>         0.0000
@<TRIPOS>BOND
     1    1    2 ar
     2    1    3 ar
     3    1   26 1
     4    2    4 ar
     5    2   27 1
     6    3    7 ar
     7    3   28 1
     8    4    8 ar
     9    4   29 1
    10    5    6 ar
    11    5    7 ar
    12    5   30 1
    13    6   11 ar
    14    6   31 1
    15    7    8 ar
    16    8    9 ar
    17    9   11 ar
    18    9   17 1
    19   10   12 ar
    20   10   13 ar
    21   10   19 1
    22   11   20 1
    23   12   14 ar
    24   12   21 1
    25   13   15 ar
    26   13   22 1
    27   14   16 ar
    28   14   23 1
    29   15   16 ar
    30   15   24 1
    31   16   25 1
    32   17   19 2
    33   17   32 1
    34   18   20 1
    35   18   33 1
    36   18   34 1
    37   18   35 1
