@<TRIPOS>MOLECULE
*****
   15    15     0     0     0
SMALL
NO_CHARGES

@<TRIPOS>ATOM
      1 C1          0.1375   -0.7603    0.8731 C.ar      1 <0>         0.0000
      2 C2          0.7228   -0.3813    3.1950 C.ar      1 <0>         0.0000
      3 C3         -0.6590   -1.8204    1.3111 C.ar      1 <0>         0.0000
      4 C4          0.8308   -0.0427    1.8478 C.ar      1 <0>         0.0000
      5 C5         -0.1090   -1.4673    3.5044 C.ar      1 <0>         0.0000
      6 C6          0.5687   -1.0549    6.2284 C.3       1 <0>         0.0000
      7 N1         -0.7853   -2.1734    2.5954 N.ar      1 <0>         0.0000
      8 F1          0.2169    0.2512    6.1815 F         1 <0>         0.0000
      9 F2          1.8951   -1.1093    5.9654 F         1 <0>         0.0000
     10 F3          0.3776   -1.4904    7.4878 F         1 <0>         0.0000
     11 S1         -0.4333   -2.1190    5.1441 S.3       1 <0>         0.0000
     12 Br1         1.9424    1.4225    1.3372 Br        1 <0>         0.0000
     13 H1          0.2093   -0.5112   -0.1795 H         1 <0>         0.0000
     14 H2          1.2606    0.1772    3.9486 H         1 <0>         0.0000
     15 H3         -1.2223   -2.4142    0.5941 H         1 <0>         0.0000
@<TRIPOS>BOND
     1    1    3 ar
     2    1    4 ar
     3    1   13 1
     4    2    4 ar
     5    2    5 ar
     6    2   14 1
     7    3    7 ar
     8    3   15 1
     9    4   12 1
    10    5    7 ar
    11    5   11 1
    12    6    8 1
    13    6    9 1
    14    6   10 1
    15    6   11 1
