@<TRIPOS>MOLECULE
*****
   44    46     0     0     0
SMALL
NO_CHARGES

@<TRIPOS>ATOM
      1 C1         -1.6647    3.8666   -5.5350 C.1       1 <0>         0.0000
      2 C2         -2.2324    2.6213   -3.5119 C.2       1 <0>         0.0000
      3 C3         -2.5787    3.0825   -4.7645 C.2       1 <0>         0.0000
      4 C4         -3.1082    1.8476   -2.7093 C.2       1 <0>         0.0000
      5 C5         -4.3754    1.5732   -3.2035 C.2       1 <0>         0.0000
      6 C6         -3.8895    2.7805   -5.3296 C.2       1 <0>         0.0000
      7 C7          0.6642   -1.1199    1.0711 C.2       1 <0>         0.0000
      8 C8         -2.7358    1.4293   -1.3184 C.2       1 <0>         0.0000
      9 C9          2.8151    0.6055   -0.0943 C.3       1 <0>         0.0000
     10 C10         1.3824    1.0967    0.1528 C.3       1 <0>         0.0000
     11 C11         0.2582   -0.6339   -1.3896 C.3       1 <0>         0.0000
     12 C12         3.0307   -0.8469    0.3884 C.3       1 <0>         0.0000
     13 C13        -0.5795    0.3914   -2.1612 C.3       1 <0>         0.0000
     14 C14        -1.0813    0.5096    0.2249 C.3       1 <0>         0.0000
     15 C15         0.3440   -0.0334    0.0385 C.3       1 <0>         0.0000
     16 C16        -5.4503    0.8262   -2.4672 C.3       1 <0>         0.0000
     17 C17         2.3876   -2.4023    2.2162 C.3       1 <0>         0.0000
     18 N1         -0.8868    4.4957   -6.1334 N.1       1 <0>         0.0000
     19 N2         -4.6949    2.0218   -4.4487 N.am      1 <0>         0.0000
     20 N3          1.9997   -1.3169    1.3202 N.am      1 <0>         0.0000
     21 N4         -1.4763    0.9408   -1.1294 N.am      1 <0>         0.0000
     22 O1         -4.3244    3.1087   -6.4275 O.2       1 <0>         0.0000
     23 O2         -0.2211   -1.7530    1.6491 O.2       1 <0>         0.0000
     24 O3         -3.5349    1.5467   -0.3821 O.2       1 <0>         0.0000
     25 H1         -1.2564    2.8871   -3.1182 H         1 <0>         0.0000
     26 H2          3.0581    0.6562   -1.1599 H         1 <0>         0.0000
     27 H3          3.5148    1.2754    0.4131 H         1 <0>         0.0000
     28 H4          1.3048    1.5111    1.1633 H         1 <0>         0.0000
     29 H5          1.1375    1.9145   -0.5331 H         1 <0>         0.0000
     30 H6         -0.2703   -1.5910   -1.3408 H         1 <0>         0.0000
     31 H7          1.2295   -0.8035   -1.8594 H         1 <0>         0.0000
     32 H8          3.0824   -1.5312   -0.4704 H         1 <0>         0.0000
     33 H9          3.9913   -0.9316    0.9031 H         1 <0>         0.0000
     34 H10         0.0638    1.1708   -2.5858 H         1 <0>         0.0000
     35 H11        -1.1447   -0.0573   -2.9817 H         1 <0>         0.0000
     36 H12        -1.7533   -0.2677    0.5949 H         1 <0>         0.0000
     37 H13        -1.1272    1.3520    0.9188 H         1 <0>         0.0000
     38 H14        -5.9848    1.5112   -1.8023 H         1 <0>         0.0000
     39 H15        -5.0283    0.0461   -1.8343 H         1 <0>         0.0000
     40 H16        -6.1633    0.3808   -3.1674 H         1 <0>         0.0000
     41 H17         2.6272   -3.3167    1.6565 H         1 <0>         0.0000
     42 H18         1.5617   -2.6157    2.8927 H         1 <0>         0.0000
     43 H19         3.2688   -2.1012    2.7910 H         1 <0>         0.0000
     44 H20        -5.6154    1.8148   -4.8280 H         1 <0>         0.0000
@<TRIPOS>BOND
     1    1    3 1
     2    1   18 3
     3    2    3 2
     4    2    4 1
     5    2   25 1
     6    3    6 1
     7    4    5 2
     8    4    8 1
     9    5   16 1
    10    5   19 1
    11    6   19 am
    12    6   22 2
    13    7   15 1
    14    7   20 am
    15    7   23 2
    16    8   21 am
    17    8   24 2
    18    9   10 1
    19    9   12 1
    20    9   26 1
    21    9   27 1
    22   10   15 1
    23   10   28 1
    24   10   29 1
    25   11   13 1
    26   11   15 1
    27   11   30 1
    28   11   31 1
    29   12   20 1
    30   12   32 1
    31   12   33 1
    32   13   21 1
    33   13   34 1
    34   13   35 1
    35   14   15 1
    36   14   21 1
    37   14   36 1
    38   14   37 1
    39   16   38 1
    40   16   39 1
    41   16   40 1
    42   17   20 1
    43   17   41 1
    44   17   42 1
    45   17   43 1
    46   19   44 1
