@<TRIPOS>MOLECULE
*****
   27    28     0     0     0
SMALL
NO_CHARGES

@<TRIPOS>ATOM
      1 C1         -0.0310    3.0588   -1.2983 C.1       1 <0>         0.0000
      2 C2          3.0673   -0.9204    2.2168 C.ar      1 <0>         0.0000
      3 C3          1.8269   -0.6611    2.8021 C.ar      1 <0>         0.0000
      4 C4          3.2344   -0.8153    0.8323 C.ar      1 <0>         0.0000
      5 C5          0.8860   -0.2140    0.6109 C.ar      1 <0>         0.0000
      6 C6          0.6253    2.9771   -0.0399 C.2       1 <0>         0.0000
      7 C7          0.7356   -0.2761    2.0067 C.ar      1 <0>         0.0000
      8 C8          2.1326   -0.4735    0.0436 C.ar      1 <0>         0.0000
      9 C9          0.0964    2.4821    1.1265 C.2       1 <0>         0.0000
     10 C10         2.1781    3.0747    1.4280 C.2       1 <0>         0.0000
     11 C11        -0.5436    0.0672    2.6637 C.2       1 <0>         0.0000
     12 C12         3.4402    3.1751    2.2041 C.3       1 <0>         0.0000
     13 N1         -0.6039    3.1059   -2.3126 N.1       1 <0>         0.0000
     14 N2          1.9517    3.3623    0.1844 N.2       1 <0>         0.0000
     15 N3         -1.3845    1.0166    2.4280 N.2       1 <0>         0.0000
     16 N4         -1.1451    1.9593    1.4391 N.pl3     1 <0>         0.0000
     17 O1          1.0749    2.5596    2.0813 O.3       1 <0>         0.0000
     18 Cl1         2.3173   -0.3469   -1.6924 Cl        1 <0>         0.0000
     19 H1          3.9136   -1.2024    2.8373 H         1 <0>         0.0000
     20 H2          1.7081   -0.7266    3.8805 H         1 <0>         0.0000
     21 H3          4.1975   -1.0041    0.3689 H         1 <0>         0.0000
     22 H4          0.0425    0.0246   -0.0265 H         1 <0>         0.0000
     23 H5         -0.8488   -0.5682    3.4949 H         1 <0>         0.0000
     24 H6          3.3017    3.7768    3.1074 H         1 <0>         0.0000
     25 H7          3.7714    2.1763    2.5083 H         1 <0>         0.0000
     26 H8          4.2050    3.6328    1.5763 H         1 <0>         0.0000
     27 H9         -1.9177    2.6125    1.3839 H         1 <0>         0.0000
@<TRIPOS>BOND
     1    1    6 1
     2    1   13 3
     3    2    3 ar
     4    2    4 ar
     5    2   19 1
     6    3    7 ar
     7    3   20 1
     8    4    8 ar
     9    4   21 1
    10    5    7 ar
    11    5    8 ar
    12    5   22 1
    13    6    9 2
    14    6   14 1
    15    7   11 1
    16    8   18 1
    17    9   16 1
    18    9   17 1
    19   10   12 1
    20   10   14 2
    21   10   17 1
    22   11   15 2
    23   11   23 1
    24   12   24 1
    25   12   25 1
    26   12   26 1
    27   15   16 1
    28   16   27 1
