@<TRIPOS>MOLECULE
*****
   29    30     0     0     0
SMALL
NO_CHARGES

@<TRIPOS>ATOM
      1 C1         -0.7795   -3.6352    5.2032 C.1       1 <0>         0.0000
      2 C2         -4.4723    0.6677    4.4931 C.2       1 <0>         0.0000
      3 C3          0.1917   -3.9751    4.2254 C.2       1 <0>         0.0000
      4 C4         -2.8717   -0.1209    2.8463 C.2       1 <0>         0.0000
      5 C5         -3.4659    1.1009    2.5661 C.2       1 <0>         0.0000
      6 C6          0.3426   -3.4880    2.9466 C.2       1 <0>         0.0000
      7 C7          1.8741   -4.9951    3.3485 C.2       1 <0>         0.0000
      8 C8         -1.8757   -0.8970    2.1093 C.2       1 <0>         0.0000
      9 C9         -3.2114    2.0166    1.3975 C.3       1 <0>         0.0000
     10 C10         3.0495   -5.8318    2.9934 C.3       1 <0>         0.0000
     11 C11        -1.6477   -0.6853    0.6304 C.3       1 <0>         0.0000
     12 N1         -1.5752   -3.3767    6.0162 N.1       1 <0>         0.0000
     13 N2         -4.3761    1.5277    3.5124 N.2       1 <0>         0.0000
     14 N3          1.1948   -4.9390    4.4417 N.2       1 <0>         0.0000
     15 N4         -1.2536   -1.8014    2.7975 N.2       1 <0>         0.0000
     16 N5         -0.3326   -2.5913    2.1632 N.pl3     1 <0>         0.0000
     17 O1          1.4004   -4.1169    2.3670 O.3       1 <0>         0.0000
     18 S1         -3.4654   -0.7341    4.3765 S.3       1 <0>         0.0000
     19 H1         -5.1293    0.8106    5.3452 H         1 <0>         0.0000
     20 H2         -3.8241    1.7459    0.5292 H         1 <0>         0.0000
     21 H3         -3.4882    3.0322    1.6875 H         1 <0>         0.0000
     22 H4         -2.1638    2.0177    1.0888 H         1 <0>         0.0000
     23 H5          2.8269   -6.4806    2.1399 H         1 <0>         0.0000
     24 H6          3.9101   -5.2090    2.7281 H         1 <0>         0.0000
     25 H7          3.3076   -6.4500    3.8537 H         1 <0>         0.0000
     26 H8         -0.7166   -0.1376    0.4353 H         1 <0>         0.0000
     27 H9         -1.5830   -1.6544    0.1224 H         1 <0>         0.0000
     28 H10        -2.4626   -0.1303    0.1717 H         1 <0>         0.0000
     29 H11         0.1426   -2.2775    1.3197 H         1 <0>         0.0000
@<TRIPOS>BOND
     1    1    3 1
     2    1   12 3
     3    2   13 2
     4    2   18 1
     5    2   19 1
     6    3    6 2
     7    3   14 1
     8    4    5 2
     9    4    8 1
    10    4   18 1
    11    5    9 1
    12    5   13 1
    13    6   16 1
    14    6   17 1
    15    7   10 1
    16    7   14 2
    17    7   17 1
    18    8   11 1
    19    8   15 2
    20    9   20 1
    21    9   21 1
    22    9   22 1
    23   10   23 1
    24   10   24 1
    25   10   25 1
    26   11   26 1
    27   11   27 1
    28   11   28 1
    29   15   16 1
    30   16   29 1
