@<TRIPOS>MOLECULE
*****
   29    30     0     0     0
SMALL
NO_CHARGES

@<TRIPOS>ATOM
      1 C1          2.3751   -3.7033    2.4276 C.1       1 <0>         0.0000
      2 C2         -4.8472    1.1533    2.7484 C.2       1 <0>         0.0000
      3 C3          2.2209   -2.2948    2.4193 C.2       1 <0>         0.0000
      4 C4         -2.7511    0.5172    1.6950 C.2       1 <0>         0.0000
      5 C5         -3.2460    1.7642    1.3402 C.2       1 <0>         0.0000
      6 C6          1.0815   -1.6030    2.0632 C.2       1 <0>         0.0000
      7 C7          2.6605   -0.2088    2.6541 C.2       1 <0>         0.0000
      8 C8         -1.5457   -0.2011    1.2768 C.2       1 <0>         0.0000
      9 C9         -2.6471    2.7823    0.4064 C.3       1 <0>         0.0000
     10 C10         3.2097    1.1457    2.9193 C.3       1 <0>         0.0000
     11 C11        -0.7261    0.3030    0.1172 C.3       1 <0>         0.0000
     12 N1          2.4313   -4.8696    2.4140 N.1       1 <0>         0.0000
     13 N2         -4.4398    2.1025    1.9478 N.2       1 <0>         0.0000
     14 N3          3.2102   -1.3683    2.7836 N.2       1 <0>         0.0000
     15 N4         -1.3044   -1.2881    1.9425 N.2       1 <0>         0.0000
     16 N5         -0.1347   -2.0076    1.5603 N.pl3     1 <0>         0.0000
     17 O1          1.3366   -0.2775    2.2059 O.3       1 <0>         0.0000
     18 S1         -3.8247   -0.2377    2.8565 S.3       1 <0>         0.0000
     19 H1         -5.7666    1.2159    3.3222 H         1 <0>         0.0000
     20 H2         -2.8187    2.5168   -0.6427 H         1 <0>         0.0000
     21 H3         -3.1314    3.7431    0.5892 H         1 <0>         0.0000
     22 H4         -1.5714    2.8985    0.5512 H         1 <0>         0.0000
     23 H5          3.1961    1.7611    2.0136 H         1 <0>         0.0000
     24 H6          2.6238    1.6619    3.6869 H         1 <0>         0.0000
     25 H7          4.2387    1.0426    3.2647 H         1 <0>         0.0000
     26 H8         -0.0659    1.1171    0.4274 H         1 <0>         0.0000
     27 H9         -0.1061   -0.5060   -0.2719 H         1 <0>         0.0000
     28 H10        -1.3757    0.6728   -0.6773 H         1 <0>         0.0000
     29 H11        -0.2869   -2.9938    1.7579 H         1 <0>         0.0000
@<TRIPOS>BOND
     1    1    3 1
     2    1   12 3
     3    2   13 2
     4    2   18 1
     5    2   19 1
     6    3    6 2
     7    3   14 1
     8    4    5 2
     9    4    8 1
    10    4   18 1
    11    5    9 1
    12    5   13 1
    13    6   16 1
    14    6   17 1
    15    7   10 1
    16    7   14 2
    17    7   17 1
    18    8   11 1
    19    8   15 2
    20    9   20 1
    21    9   21 1
    22    9   22 1
    23   10   23 1
    24   10   24 1
    25   10   25 1
    26   11   26 1
    27   11   27 1
    28   11   28 1
    29   15   16 1
    30   16   29 1
