@<TRIPOS>MOLECULE
*****
   27    28     0     0     0
SMALL
NO_CHARGES

@<TRIPOS>ATOM
      1 C1          1.0276   -7.5019   -4.7625 C.1       1 <0>         0.0000
      2 C2          2.3963   -1.4272    0.7291 C.ar      1 <0>         0.0000
      3 C3          3.9515   -1.9418    2.5085 C.ar      1 <0>         0.0000
      4 C4          1.6031   -0.7104    1.6260 C.ar      1 <0>         0.0000
      5 C5          3.1606   -1.2411    3.4173 C.ar      1 <0>         0.0000
      6 C6          1.5583   -6.5090   -3.8849 C.ar      1 <0>         0.0000
      7 C7          3.5774   -2.0648    1.1573 C.ar      1 <0>         0.0000
      8 C8          2.7803   -5.8521   -4.1600 C.ar      1 <0>         0.0000
      9 C9          3.2808   -4.8857   -3.2818 C.ar      1 <0>         0.0000
     10 C10         1.9859   -0.6329    2.9669 C.ar      1 <0>         0.0000
     11 C11         2.5441   -4.6431   -2.0944 C.ar      1 <0>         0.0000
     12 C12         0.8866   -6.1154   -2.7114 C.ar      1 <0>         0.0000
     13 C13         4.4770   -2.8057    0.2509 C.2       1 <0>         0.0000
     14 N1          0.5922   -8.3134   -5.4763 N.1       1 <0>         0.0000
     15 N2          1.3641   -5.2394   -1.8559 N.ar      1 <0>         0.0000
     16 N3          4.2105   -3.5384   -0.7758 N.2       1 <0>         0.0000
     17 N4          2.8962   -3.7328   -1.1160 N.pl3     1 <0>         0.0000
     18 Cl1         3.6204   -6.2458   -5.6176 Cl        1 <0>         0.0000
     19 Cl2         4.6934   -3.9693   -3.6970 Cl        1 <0>         0.0000
     20 Cl3        -0.6606   -6.8207   -2.3295 Cl        1 <0>         0.0000
     21 Br1         0.8947    0.3342    4.2042 Br        1 <0>         0.0000
     22 H1          2.1117   -1.4488   -0.3180 H         1 <0>         0.0000
     23 H2          4.8708   -2.4084    2.8541 H         1 <0>         0.0000
     24 H3          0.7013   -0.2136    1.2833 H         1 <0>         0.0000
     25 H4          3.4542   -1.1640    4.4590 H         1 <0>         0.0000
     26 H5          5.5405   -2.7626    0.4822 H         1 <0>         0.0000
     27 H6          2.1880   -3.6716   -0.3822 H         1 <0>         0.0000
@<TRIPOS>BOND
     1    1    6 1
     2    1   14 3
     3    2    4 ar
     4    2    7 ar
     5    2   22 1
     6    3    5 ar
     7    3    7 ar
     8    3   23 1
     9    4   10 ar
    10    4   24 1
    11    5   10 ar
    12    5   25 1
    13    6    8 ar
    14    6   12 ar
    15    7   13 1
    16    8    9 ar
    17    8   18 1
    18    9   11 ar
    19    9   19 1
    20   10   21 1
    21   11   15 ar
    22   11   17 1
    23   12   15 ar
    24   12   20 1
    25   13   16 2
    26   13   26 1
    27   16   17 1
    28   17   27 1
