@<TRIPOS>MOLECULE
*****
   16    16     0     0     0
SMALL
NO_CHARGES

@<TRIPOS>ATOM
      1 C1          1.7306   -0.9881    0.0198 C.ar      1 <0>         0.0000
      2 C2          0.6286   -0.4992    0.7029 C.ar      1 <0>         0.0000
      3 C3          1.7624   -1.0172    2.7898 C.ar      1 <0>         0.0000
      4 C4          2.8699   -1.5011    0.6777 C.ar      1 <0>         0.0000
      5 C5          2.8859   -1.5156    2.0975 C.ar      1 <0>         0.0000
      6 C6          0.6641   -0.5226    2.1013 C.ar      1 <0>         0.0000
      7 C7          3.9313   -1.9708   -0.2549 C.2       1 <0>         0.0000
      8 O1          3.8453   -1.9206   -1.4693 O.2       1 <0>         0.0000
      9 O2          5.0548   -2.4839    0.3305 O.3       1 <0>         0.0000
     10 S1          4.1529   -2.0859    3.2058 S.3       1 <0>         0.0000
     11 Br1        -0.8331    0.1411    3.0894 Br        1 <0>         0.0000
     12 H1          1.7411   -0.9869   -1.0647 H         1 <0>         0.0000
     13 H2         -0.2331   -0.1111    0.1713 H         1 <0>         0.0000
     14 H3          1.7588   -1.0213    3.8753 H         1 <0>         0.0000
     15 H4          5.6401   -2.7409   -0.4088 H         1 <0>         0.0000
     16 H5          5.0503   -2.4861    2.2914 H         1 <0>         0.0000
@<TRIPOS>BOND
     1    1    2 ar
     2    1    4 ar
     3    1   12 1
     4    2    6 ar
     5    2   13 1
     6    3    5 ar
     7    3    6 ar
     8    3   14 1
     9    4    5 ar
    10    4    7 1
    11    5   10 1
    12    6   11 1
    13    7    8 2
    14    7    9 1
    15    9   15 1
    16   10   16 1
