@<TRIPOS>MOLECULE
*****
   40    44     0     0     0
SMALL
NO_CHARGES

@<TRIPOS>ATOM
      1 C1          1.9620   -0.4510    0.3023 C.ar      1 <0>         0.0000
      2 C2          0.5708   -0.4261    0.0625 C.ar      1 <0>         0.0000
      3 C3          2.6013   -1.6207    0.7080 C.ar      1 <0>         0.0000
      4 C4         -0.2109   -1.5703    0.2252 C.ar      1 <0>         0.0000
      5 C5          4.2720   -8.2613    5.1610 C.2       1 <0>         0.0000
      6 C6          1.8389   -2.7906    0.8778 C.ar      1 <0>         0.0000
      7 C7          2.1428   -4.1403    1.2776 C.2       1 <0>         0.0000
      8 C8          0.4339   -2.7424    0.6330 C.ar      1 <0>         0.0000
      9 C9          3.4151   -7.6032    4.2313 C.2       1 <0>         0.0000
     10 C10         0.9661   -4.8500    1.2619 C.2       1 <0>         0.0000
     11 C11         3.4933   -9.2503    5.6921 C.2       1 <0>         0.0000
     12 C12         3.8073   -6.3630    3.4754 C.2       1 <0>         0.0000
     13 C13         3.4544   -4.7498    1.6865 C.3       1 <0>         0.0000
     14 C14         0.8403   -6.3021    1.5973 C.3       1 <0>         0.0000
     15 C15         2.6383  -10.6958    7.6685 C.3       1 <0>         0.0000
     16 C16         3.0662  -11.6488    6.5867 C.3       1 <0>         0.0000
     17 C17         2.2536   -6.9075    1.5536 C.3       1 <0>         0.0000
     18 C18         3.7420  -10.2876    6.7001 C.3       1 <0>         0.0000
     19 N1          2.2096   -8.1411    4.2071 N.2       1 <0>         0.0000
     20 N2         -0.0719   -4.0118    0.8774 N.pl3     1 <0>         0.0000
     21 N3          3.2055   -6.0692    2.2878 N.am      1 <0>         0.0000
     22 O1          4.6738   -5.6462    3.9873 O.2       1 <0>         0.0000
     23 O2          2.2542   -9.1923    5.1340 O.3       1 <0>         0.0000
     24 H1          2.5399    0.4596    0.1685 H         1 <0>         0.0000
     25 H2          0.0995    0.5010   -0.2527 H         1 <0>         0.0000
     26 H3          3.6729   -1.6269    0.8921 H         1 <0>         0.0000
     27 H4         -1.2826   -1.5460    0.0422 H         1 <0>         0.0000
     28 H5          5.2940   -8.0026    5.3941 H         1 <0>         0.0000
     29 H6          4.1328   -4.8619    0.8276 H         1 <0>         0.0000
     30 H7          3.9720   -4.1406    2.4284 H         1 <0>         0.0000
     31 H8          0.4101   -6.4535    2.5946 H         1 <0>         0.0000
     32 H9          0.1988   -6.8272    0.8781 H         1 <0>         0.0000
     33 H10         1.6807  -10.1984    7.5553 H         1 <0>         0.0000
     34 H11         2.9352  -10.9014    8.6922 H         1 <0>         0.0000
     35 H12         3.6593  -12.5160    6.8602 H         1 <0>         0.0000
     36 H13         2.3956  -11.7933    5.7459 H         1 <0>         0.0000
     37 H14         2.2531   -7.9154    1.9571 H         1 <0>         0.0000
     38 H15         2.5953   -6.9509    0.5120 H         1 <0>         0.0000
     39 H16         4.7549  -10.2723    7.0887 H         1 <0>         0.0000
     40 H17        -1.0387   -4.2870    0.7813 H         1 <0>         0.0000
@<TRIPOS>BOND
     1    1    2 ar
     2    1    3 ar
     3    1   24 1
     4    2    4 ar
     5    2   25 1
     6    3    6 ar
     7    3   26 1
     8    4    8 ar
     9    4   27 1
    10    5    9 1
    11    5   11 2
    12    5   28 1
    13    6    7 1
    14    6    8 ar
    15    7   10 2
    16    7   13 1
    17    8   20 1
    18    9   12 1
    19    9   19 2
    20   10   14 1
    21   10   20 1
    22   11   18 1
    23   11   23 1
    24   12   21 am
    25   12   22 2
    26   13   21 1
    27   13   29 1
    28   13   30 1
    29   14   17 1
    30   14   31 1
    31   14   32 1
    32   15   16 1
    33   15   18 1
    34   15   33 1
    35   15   34 1
    36   16   18 1
    37   16   35 1
    38   16   36 1
    39   17   21 1
    40   17   37 1
    41   17   38 1
    42   18   39 1
    43   19   23 1
    44   20   40 1
