@<TRIPOS>MOLECULE
*****
   26    26     0     0     0
SMALL
NO_CHARGES

@<TRIPOS>ATOM
      1 C1          0.1322    0.6368   -1.2614 C.1       1 <0>         0.0000
      2 C2         -1.4283   -5.2138   -2.2824 C.ar      1 <0>         0.0000
      3 C3         -1.6119   -6.0366   -1.1662 C.ar      1 <0>         0.0000
      4 C4         -1.0401   -4.1471    0.2854 C.ar      1 <0>         0.0000
      5 C5         -0.8469   -3.3202   -0.8407 C.ar      1 <0>         0.0000
      6 C6         -1.0350   -3.8868   -2.1205 C.ar      1 <0>         0.0000
      7 C7         -1.4285   -5.4732    0.0966 C.ar      1 <0>         0.0000
      8 C8         -0.1826   -1.2411    0.3758 C.2       1 <0>         0.0000
      9 C9          1.6835    0.4134    0.6364 C.3       1 <0>         0.0000
     10 C10        -0.7331    1.1317    0.9901 C.3       1 <0>         0.0000
     11 C11         0.2215    0.2457    0.1554 C.3       1 <0>         0.0000
     12 N1          0.0585    0.9185   -2.3880 N.1       1 <0>         0.0000
     13 N2         -0.4888   -1.9614   -0.7491 N.am      1 <0>         0.0000
     14 O1         -0.1971   -1.6833    1.5177 O.2       1 <0>         0.0000
     15 Cl1        -0.7696   -2.9064   -3.5562 Cl        1 <0>         0.0000
     16 I1         -1.0395   -6.9059    1.8211 I         1 <0>         0.0000
     17 H1         -1.5807   -5.6074   -3.2823 H         1 <0>         0.0000
     18 H2         -1.9020   -7.0738   -1.2917 H         1 <0>         0.0000
     19 H3         -0.8781   -3.7296    1.2691 H         1 <0>         0.0000
     20 H4          1.7468    0.0985    1.6798 H         1 <0>         0.0000
     21 H5          2.3688   -0.1947    0.0400 H         1 <0>         0.0000
     22 H6          1.9852    1.4607    0.5552 H         1 <0>         0.0000
     23 H7         -0.6770    0.8187    2.0343 H         1 <0>         0.0000
     24 H8         -1.7661    1.0331    0.6466 H         1 <0>         0.0000
     25 H9         -0.4360    2.1804    0.9088 H         1 <0>         0.0000
     26 H10        -0.4265   -1.4755   -1.6394 H         1 <0>         0.0000
@<TRIPOS>BOND
     1    1   11 1
     2    1   12 3
     3    2    3 ar
     4    2    6 ar
     5    2   17 1
     6    3    7 ar
     7    3   18 1
     8    4    5 ar
     9    4    7 ar
    10    4   19 1
    11    5    6 ar
    12    5   13 1
    13    6   15 1
    14    7   16 1
    15    8   11 1
    16    8   13 am
    17    8   14 2
    18    9   11 1
    19    9   20 1
    20    9   21 1
    21    9   22 1
    22   10   11 1
    23   10   23 1
    24   10   24 1
    25   10   25 1
    26   13   26 1
