@<TRIPOS>MOLECULE
*****
   21    22     0     0     0
SMALL
NO_CHARGES

@<TRIPOS>ATOM
      1 C1          0.1718   -1.5395    1.0121 C.ar      1 <0>         0.0000
      2 C2          0.3175   -0.1537    0.9678 C.ar      1 <0>         0.0000
      3 C3          0.3820   -2.1917    2.2288 C.ar      1 <0>         0.0000
      4 C4          0.6686    0.5170    2.1499 C.ar      1 <0>         0.0000
      5 C5          1.3817   -3.5520    7.1858 C.2       1 <0>         0.0000
      6 C6          0.7305   -1.4303    3.3562 C.ar      1 <0>         0.0000
      7 C7          1.8039   -1.5818    8.0363 C.2       1 <0>         0.0000
      8 C8          0.9494   -2.1299    4.6334 C.2       1 <0>         0.0000
      9 N1          0.8722   -0.0917    3.3174 N.ar      1 <0>         0.0000
     10 N2          1.6582   -3.7162    8.4517 N.2       1 <0>         0.0000
     11 N3          1.9294   -2.4626    9.0026 N.2       1 <0>         0.0000
     12 N4          1.2688   -1.4901    5.6990 N.2       1 <0>         0.0000
     13 N5          1.4574   -2.2049    6.8537 N.pl3     1 <0>         0.0000
     14 S1          2.0231    0.1568    8.1291 S.3       1 <0>         0.0000
     15 H1         -0.0988   -2.1020    0.1227 H         1 <0>         0.0000
     16 H2          0.1658    0.4030    0.0477 H         1 <0>         0.0000
     17 H3          0.2784   -3.2711    2.3059 H         1 <0>         0.0000
     18 H4          0.7902    1.5995    2.1485 H         1 <0>         0.0000
     19 H5          1.1302   -4.3417    6.4937 H         1 <0>         0.0000
     20 H6          0.8224   -3.2159    4.6093 H         1 <0>         0.0000
     21 H7          2.3226    0.0946    9.4432 H         1 <0>         0.0000
@<TRIPOS>BOND
     1    1    2 ar
     2    1    3 ar
     3    1   15 1
     4    2    4 ar
     5    2   16 1
     6    3    6 ar
     7    3   17 1
     8    4    9 ar
     9    4   18 1
    10    5   10 2
    11    5   13 1
    12    5   19 1
    13    6    8 1
    14    6    9 ar
    15    7   11 2
    16    7   13 1
    17    7   14 1
    18    8   12 2
    19    8   20 1
    20   10   11 1
    21   12   13 1
    22   14   21 1
