@<TRIPOS>MOLECULE
*****
   27    28     0     0     0
SMALL
NO_CHARGES

@<TRIPOS>ATOM
      1 C1          0.0045    5.1153   -0.6741 C.1       1 <0>         0.0000
      2 C2         -0.6221   -0.4376    0.3878 C.ar      1 <0>         0.0000
      3 C3         -0.6507    0.6231    1.2955 C.ar      1 <0>         0.0000
      4 C4          0.3029   -1.4749    0.5284 C.ar      1 <0>         0.0000
      5 C5          1.1708   -0.3991    2.5294 C.ar      1 <0>         0.0000
      6 C6         -0.1408    5.6154    0.6431 C.2       1 <0>         0.0000
      7 C7          0.2575    0.6593    2.3715 C.ar      1 <0>         0.0000
      8 C8          1.1895   -1.4435    1.6082 C.ar      1 <0>         0.0000
      9 C9         -0.1770    4.8588    1.7957 C.2       1 <0>         0.0000
     10 C10        -0.3922    6.9710    2.2838 C.2       1 <0>         0.0000
     11 C11         0.2764    1.7392    3.3810 C.2       1 <0>         0.0000
     12 C12        -0.5539    8.1094    3.2241 C.3       1 <0>         0.0000
     13 N1          0.1243    4.6226   -1.7265 N.1       1 <0>         0.0000
     14 N2         -0.2837    6.9658    0.9975 N.2       1 <0>         0.0000
     15 N3          0.0953    3.0086    3.2377 N.2       1 <0>         0.0000
     16 N4         -0.1449    3.5047    1.9869 N.pl3     1 <0>         0.0000
     17 O1         -0.3369    5.6920    2.8471 O.3       1 <0>         0.0000
     18 Cl1         2.3448   -2.7469    1.8119 Cl        1 <0>         0.0000
     19 H1         -1.3292   -0.4607   -0.4365 H         1 <0>         0.0000
     20 H2         -1.4110    1.3908    1.1924 H         1 <0>         0.0000
     21 H3          0.3319   -2.2977   -0.1785 H         1 <0>         0.0000
     22 H4          1.8679   -0.3990    3.3623 H         1 <0>         0.0000
     23 H5          0.5064    1.4497    4.4051 H         1 <0>         0.0000
     24 H6         -1.4786    8.0114    3.8018 H         1 <0>         0.0000
     25 H7          0.2808    8.1531    3.9311 H         1 <0>         0.0000
     26 H8         -0.5857    9.0352    2.6489 H         1 <0>         0.0000
     27 H9          0.0892    2.9526    1.1612 H         1 <0>         0.0000
@<TRIPOS>BOND
     1    1    6 1
     2    1   13 3
     3    2    3 ar
     4    2    4 ar
     5    2   19 1
     6    3    7 ar
     7    3   20 1
     8    4    8 ar
     9    4   21 1
    10    5    7 ar
    11    5    8 ar
    12    5   22 1
    13    6    9 2
    14    6   14 1
    15    7   11 1
    16    8   18 1
    17    9   16 1
    18    9   17 1
    19   10   12 1
    20   10   14 2
    21   10   17 1
    22   11   15 2
    23   11   23 1
    24   12   24 1
    25   12   25 1
    26   12   26 1
    27   15   16 1
    28   16   27 1
