@<TRIPOS>MOLECULE
*****
   31    33     0     0     0
SMALL
NO_CHARGES

@<TRIPOS>ATOM
      1 C1         -5.9457    4.7642    0.2633 C.1       1 <0>         0.0000
      2 C2         -2.4432   -2.3021    1.6826 C.ar      1 <0>         0.0000
      3 C3         -3.0518   -3.4916    2.0722 C.ar      1 <0>         0.0000
      4 C4         -4.9131   -2.2810    3.1207 C.ar      1 <0>         0.0000
      5 C5         -3.6671    1.0618    2.2896 C.2       1 <0>         0.0000
      6 C6         -6.7671    4.8519    1.4132 C.2       1 <0>         0.0000
      7 C7         -4.3048   -1.0719    2.7384 C.ar      1 <0>         0.0000
      8 C8         -4.6747    0.3215    2.9037 C.2       1 <0>         0.0000
      9 C9         -3.0793   -1.1037    2.0236 C.ar      1 <0>         0.0000
     10 C10        -4.2708   -3.4642    2.7810 C.ar      1 <0>         0.0000
     11 C11        -6.7939    3.9377    2.4467 C.2       1 <0>         0.0000
     12 C12        -8.1821    5.5671    2.8536 C.2       1 <0>         0.0000
     13 C13        -5.8454    0.7691    3.6436 C.2       1 <0>         0.0000
     14 C14        -9.2064    6.2692    3.6689 C.3       1 <0>         0.0000
     15 N1         -5.2250    4.6063   -0.6430 N.1       1 <0>         0.0000
     16 N2         -7.6701    5.8838    1.7115 N.2       1 <0>         0.0000
     17 N3         -6.5003    1.8826    3.5808 N.2       1 <0>         0.0000
     18 N4         -2.7177    0.2111    1.7745 N.pl3     1 <0>         0.0000
     19 N5         -6.0489    2.8120    2.6684 N.pl3     1 <0>         0.0000
     20 O1         -7.6796    4.3687    3.3711 O.3       1 <0>         0.0000
     21 Br1        -5.0709   -5.1365    3.2800 Br        1 <0>         0.0000
     22 H1         -1.5065   -2.3165    1.1320 H         1 <0>         0.0000
     23 H2         -2.5924   -4.4436    1.8295 H         1 <0>         0.0000
     24 H3         -5.8569   -2.2979    3.6554 H         1 <0>         0.0000
     25 H4         -3.5150    2.1311    2.2400 H         1 <0>         0.0000
     26 H5         -6.2658    0.0647    4.3587 H         1 <0>         0.0000
     27 H6        -10.0868    5.6359    3.8188 H         1 <0>         0.0000
     28 H7         -8.8096    6.5309    4.6551 H         1 <0>         0.0000
     29 H8         -9.5036    7.1797    3.1478 H         1 <0>         0.0000
     30 H9         -1.8947    0.5080    1.2681 H         1 <0>         0.0000
     31 H10        -5.5583    2.4712    1.8390 H         1 <0>         0.0000
@<TRIPOS>BOND
     1    1    6 1
     2    1   15 3
     3    2    3 ar
     4    2    9 ar
     5    2   22 1
     6    3   10 ar
     7    3   23 1
     8    4    7 ar
     9    4   10 ar
    10    4   24 1
    11    5    8 2
    12    5   18 1
    13    5   25 1
    14    6   11 2
    15    6   16 1
    16    7    8 1
    17    7    9 ar
    18    8   13 1
    19    9   18 1
    20   10   21 1
    21   11   19 1
    22   11   20 1
    23   12   14 1
    24   12   16 2
    25   12   20 1
    26   13   17 2
    27   13   26 1
    28   14   27 1
    29   14   28 1
    30   14   29 1
    31   17   19 1
    32   18   30 1
    33   19   31 1
