@<TRIPOS>MOLECULE
*****
   28    29     0     0     0
SMALL
NO_CHARGES

@<TRIPOS>ATOM
      1 C1          3.2663   -2.4902   -4.8227 C.1       1 <0>         0.0000
      2 C2          1.9958   -2.6919    1.2905 C.ar      1 <0>         0.0000
      3 C3          0.9222   -2.0021    1.8540 C.ar      1 <0>         0.0000
      4 C4          3.0157   -0.5963    0.6422 C.ar      1 <0>         0.0000
      5 C5          3.3320   -2.9337   -3.4804 C.2       1 <0>         0.0000
      6 C6          3.0506   -1.9947    0.6874 C.ar      1 <0>         0.0000
      7 C7          0.9057   -0.6108    1.8064 C.ar      1 <0>         0.0000
      8 C8          1.9435    0.1000    1.2019 C.ar      1 <0>         0.0000
      9 C9          2.7553   -4.1020   -2.8829 C.2       1 <0>         0.0000
     10 C10         4.0445   -2.3106   -2.4494 C.2       1 <0>         0.0000
     11 C11         1.9046   -5.1343   -3.5506 C.3       1 <0>         0.0000
     12 C12         4.1893   -2.7496    0.0331 C.3       1 <0>         0.0000
     13 N1          3.2308   -2.1024   -5.9245 N.1       1 <0>         0.0000
     14 N2          3.0910   -4.1883   -1.6045 N.2       1 <0>         0.0000
     15 N3          3.8901   -3.0921   -1.3538 N.pl3     1 <0>         0.0000
     16 N4          4.7276   -1.0989   -2.4326 N.pl3     1 <0>         0.0000
     17 F1         -0.1339    0.0489    2.3555 F         1 <0>         0.0000
     18 Br1         1.8898    2.0037    1.1400 Br        1 <0>         0.0000
     19 H1          2.0079   -3.7777    1.3064 H         1 <0>         0.0000
     20 H2          0.0949   -2.5208    2.3288 H         1 <0>         0.0000
     21 H3          3.8127   -0.0435    0.1552 H         1 <0>         0.0000
     22 H4          2.4438   -5.6140   -4.3741 H         1 <0>         0.0000
     23 H5          1.6120   -5.8985   -2.8279 H         1 <0>         0.0000
     24 H6          1.0022   -4.6798   -3.9724 H         1 <0>         0.0000
     25 H7          5.1090   -2.1603    0.0559 H         1 <0>         0.0000
     26 H8          4.3828   -3.6916    0.5492 H         1 <0>         0.0000
     27 H9          4.7779   -0.6842   -3.3593 H         1 <0>         0.0000
     28 H10         5.6568   -1.1521   -2.0248 H         1 <0>         0.0000
@<TRIPOS>BOND
     1    1    5 1
     2    1   13 3
     3    2    3 ar
     4    2    6 ar
     5    2   19 1
     6    3    7 ar
     7    3   20 1
     8    4    6 ar
     9    4    8 ar
    10    4   21 1
    11    5    9 1
    12    5   10 2
    13    6   12 1
    14    7    8 ar
    15    7   17 1
    16    8   18 1
    17    9   11 1
    18    9   14 2
    19   10   15 1
    20   10   16 1
    21   11   22 1
    22   11   23 1
    23   11   24 1
    24   12   15 1
    25   12   25 1
    26   12   26 1
    27   14   15 1
    28   16   27 1
    29   16   28 1
