@<TRIPOS>MOLECULE
*****
   35    37     0     0     0
SMALL
NO_CHARGES

@<TRIPOS>ATOM
      1 C1         -0.7709   -1.9552    0.1301 C.ar      1 <0>         0.0000
      2 C2          0.0775   -0.9586   -0.4105 C.ar      1 <0>         0.0000
      3 C3         -0.2463   -3.1836    0.4705 C.ar      1 <0>         0.0000
      4 C4          1.4248   -1.2016   -0.5901 C.ar      1 <0>         0.0000
      5 C5          1.6766   -4.7325    0.6333 C.ar      1 <0>         0.0000
      6 C6          5.5820    0.4336   -2.4613 C.ar      1 <0>         0.0000
      7 C7          7.5250   -0.9255   -1.9720 C.ar      1 <0>         0.0000
      8 C8          3.0132   -4.9958    0.4524 C.ar      1 <0>         0.0000
      9 C9          6.4122    1.4785   -2.8716 C.ar      1 <0>         0.0000
     10 C10         8.3609    0.1196   -2.3610 C.ar      1 <0>         0.0000
     11 C11         1.1362   -3.4621    0.2966 C.ar      1 <0>         0.0000
     12 C12         2.0048   -2.4518   -0.2306 C.ar      1 <0>         0.0000
     13 C13         3.4048   -2.7395   -0.4108 C.ar      1 <0>         0.0000
     14 C14         6.1274   -0.7759   -1.9933 C.ar      1 <0>         0.0000
     15 C15         3.8829   -4.0056   -0.0713 C.ar      1 <0>         0.0000
     16 C16         7.7972    1.3180   -2.8085 C.ar      1 <0>         0.0000
     17 C17         4.3079   -1.6690   -0.8645 C.2       1 <0>         0.0000
     18 C18         5.6260   -4.9824   -1.3372 C.3       1 <0>         0.0000
     19 N1          5.3382   -1.8722   -1.5997 N.2       1 <0>         0.0000
     20 O1          5.2191   -4.3152   -0.1328 O.3       1 <0>         0.0000
     21 Cl1         8.8467    2.6315   -3.3210 Cl        1 <0>         0.0000
     22 H1         -1.8296   -1.7513    0.2659 H         1 <0>         0.0000
     23 H2         -0.3380    0.0047   -0.6944 H         1 <0>         0.0000
     24 H3         -0.8876   -3.9632    0.8752 H         1 <0>         0.0000
     25 H4          2.0396   -0.4246   -1.0316 H         1 <0>         0.0000
     26 H5          1.0179   -5.4941    1.0442 H         1 <0>         0.0000
     27 H6          4.5042    0.5450   -2.5411 H         1 <0>         0.0000
     28 H7          7.9432   -1.8677   -1.6302 H         1 <0>         0.0000
     29 H8          3.4433   -5.9546    0.7281 H         1 <0>         0.0000
     30 H9          5.9883    2.4052   -3.2459 H         1 <0>         0.0000
     31 H10         9.4399    0.0060   -2.3262 H         1 <0>         0.0000
     32 H11         4.0667   -0.6582   -0.5087 H         1 <0>         0.0000
     33 H12         6.6874   -5.2066   -1.2146 H         1 <0>         0.0000
     34 H13         5.4843   -4.3253   -2.1998 H         1 <0>         0.0000
     35 H14         5.0680   -5.9182   -1.4714 H         1 <0>         0.0000
@<TRIPOS>BOND
     1    1    2 ar
     2    1    3 ar
     3    1   22 1
     4    2    4 ar
     5    2   23 1
     6    3   11 ar
     7    3   24 1
     8    4   12 ar
     9    4   25 1
    10    5    8 ar
    11    5   11 ar
    12    5   26 1
    13    6    9 ar
    14    6   14 ar
    15    6   27 1
    16    7   10 ar
    17    7   14 ar
    18    7   28 1
    19    8   15 ar
    20    8   29 1
    21    9   16 ar
    22    9   30 1
    23   10   16 ar
    24   10   31 1
    25   11   12 ar
    26   12   13 ar
    27   13   15 ar
    28   13   17 1
    29   14   19 1
    30   15   20 1
    31   16   21 1
    32   17   19 2
    33   17   32 1
    34   18   20 1
    35   18   33 1
    36   18   34 1
    37   18   35 1
