@<TRIPOS>MOLECULE
*****
   51    54     0     0     0
SMALL
NO_CHARGES

@<TRIPOS>ATOM
      1 C1         -1.7520   -1.9993    4.5340 C.1       1 <0>         0.0000
      2 C2          1.5009   -0.7930    5.8159 C.ar      1 <0>         0.0000
      3 C3         -0.4210   -1.4803    4.5384 C.ar      1 <0>         0.0000
      4 C4          0.2537   -1.4156    5.7763 C.ar      1 <0>         0.0000
      5 C5          2.0242   -0.2283    4.6451 C.ar      1 <0>         0.0000
      6 C6          0.2168   -0.9436    3.3732 C.ar      1 <0>         0.0000
      7 C7          0.2175   -0.6721   -1.5238 C.2       1 <0>         0.0000
      8 C8         -1.1119    1.8382   -0.6162 C.3       1 <0>         0.0000
      9 C9          3.3987    1.9921   -2.7642 C.3       1 <0>         0.0000
     10 C10         3.6692    1.2476   -4.0561 C.3       1 <0>         0.0000
     11 C11        -1.6628    0.4371   -0.2920 C.3       1 <0>         0.0000
     12 C12        -1.1433   -2.0148    0.1468 C.3       1 <0>         0.0000
     13 C13         0.2346    1.7863   -1.3671 C.3       1 <0>         0.0000
     14 C14        -1.3415   -1.9694    1.6668 C.3       1 <0>         0.0000
     15 C15         0.3902   -0.3959    0.9911 C.3       1 <0>         0.0000
     16 C16         2.7284    0.6608   -3.0299 C.3       1 <0>         0.0000
     17 C17        -0.5606   -0.6344   -0.2029 C.3       1 <0>         0.0000
     18 C18        -0.3774   -1.9795    7.0226 C.3       1 <0>         0.0000
     19 C19         3.3383    0.5108    4.6501 C.3       1 <0>         0.0000
     20 C20         1.2452    0.5882   -3.3317 C.3       1 <0>         0.0000
     21 N1         -2.8454   -2.4039    4.6017 N.1       1 <0>         0.0000
     22 N2          1.4037   -0.3085    3.4638 N.ar      1 <0>         0.0000
     23 N3         -0.3167   -1.0126    2.1208 N.pl3     1 <0>         0.0000
     24 N4          0.4101    0.5441   -2.1272 N.am      1 <0>         0.0000
     25 O1          0.6216   -1.7272   -2.0189 O.2       1 <0>         0.0000
     26 H1          2.0502   -0.7234    6.7496 H         1 <0>         0.0000
     27 H2         -1.8487    2.3806   -1.2159 H         1 <0>         0.0000
     28 H3         -0.9693    2.4181    0.3008 H         1 <0>         0.0000
     29 H4          4.1867    2.0325   -2.0177 H         1 <0>         0.0000
     30 H5          2.7912    2.8916   -2.8223 H         1 <0>         0.0000
     31 H6          3.2364    1.6492   -4.9690 H         1 <0>         0.0000
     32 H7          4.6396    0.7795   -4.1901 H         1 <0>         0.0000
     33 H8         -2.2351    0.4649    0.6406 H         1 <0>         0.0000
     34 H9         -2.3596    0.1262   -1.0775 H         1 <0>         0.0000
     35 H10        -0.4202   -2.7834   -0.1321 H         1 <0>         0.0000
     36 H11        -2.0760   -2.2213   -0.3842 H         1 <0>         0.0000
     37 H12         0.2999    2.6148   -2.0767 H         1 <0>         0.0000
     38 H13         1.0702    1.9156   -0.6687 H         1 <0>         0.0000
     39 H14        -2.3439   -1.6274    1.9384 H         1 <0>         0.0000
     40 H15        -1.1910   -2.9489    2.1293 H         1 <0>         0.0000
     41 H16         1.3599   -0.8813    0.8253 H         1 <0>         0.0000
     42 H17         0.5842    0.6563    1.2019 H         1 <0>         0.0000
     43 H18         3.0998   -0.1917   -2.4671 H         1 <0>         0.0000
     44 H19        -1.3130   -1.4598    7.2544 H         1 <0>         0.0000
     45 H20        -0.6287   -3.0369    6.8931 H         1 <0>         0.0000
     46 H21         0.2944   -1.8822    7.8783 H         1 <0>         0.0000
     47 H22         4.0184    0.0735    3.9126 H         1 <0>         0.0000
     48 H23         3.1800    1.5559    4.3635 H         1 <0>         0.0000
     49 H24         3.8158    0.4856    5.6326 H         1 <0>         0.0000
     50 H25         1.0298   -0.3116   -3.9105 H         1 <0>         0.0000
     51 H26         0.9359    1.4583   -3.9223 H         1 <0>         0.0000
@<TRIPOS>BOND
     1    1    3 1
     2    1   21 3
     3    2    4 ar
     4    2    5 ar
     5    2   26 1
     6    3    4 ar
     7    3    6 ar
     8    4   18 1
     9    5   19 1
    10    5   22 ar
    11    6   22 ar
    12    6   23 1
    13    7   17 1
    14    7   24 am
    15    7   25 2
    16    8   11 1
    17    8   13 1
    18    8   27 1
    19    8   28 1
    20    9   10 1
    21    9   16 1
    22    9   29 1
    23    9   30 1
    24   10   16 1
    25   10   31 1
    26   10   32 1
    27   11   17 1
    28   11   33 1
    29   11   34 1
    30   12   14 1
    31   12   17 1
    32   12   35 1
    33   12   36 1
    34   13   24 1
    35   13   37 1
    36   13   38 1
    37   14   23 1
    38   14   39 1
    39   14   40 1
    40   15   17 1
    41   15   23 1
    42   15   41 1
    43   15   42 1
    44   16   20 1
    45   16   43 1
    46   18   44 1
    47   18   45 1
    48   18   46 1
    49   19   47 1
    50   19   48 1
    51   19   49 1
    52   20   24 1
    53   20   50 1
    54   20   51 1
