@<TRIPOS>MOLECULE
*****
   42    44     0     0     0
SMALL
NO_CHARGES

@<TRIPOS>ATOM
      1 C1         -5.2944   -0.3494   -0.4083 C.ar      1 <0>         0.0000
      2 C2         -5.7268   -0.4827   -2.7649 C.ar      1 <0>         0.0000
      3 C3         -8.6475   -0.7094   -1.9546 C.ar      1 <0>         0.0000
      4 C4         -8.0721    0.8673   -0.2218 C.ar      1 <0>         0.0000
      5 C5         -3.9385   -0.5861   -0.6442 C.ar      1 <0>         0.0000
      6 C6         -4.3725   -0.7164   -2.9938 C.ar      1 <0>         0.0000
      7 C7        -10.0058   -0.4842   -1.7231 C.ar      1 <0>         0.0000
      8 C8         -9.4254    1.1061    0.0251 C.ar      1 <0>         0.0000
      9 C9         -6.2184   -0.2915   -1.4623 C.ar      1 <0>         0.0000
     10 C10        -7.6579   -0.0416   -1.2115 C.ar      1 <0>         0.0000
     11 C11        -3.4414   -0.7711   -1.9416 C.ar      1 <0>         0.0000
     12 C12       -10.3705    0.4226   -0.7332 C.ar      1 <0>         0.0000
     13 C13         0.2153   -3.7804   -2.2352 C.2       1 <0>         0.0000
     14 C14        -0.8786    0.7667   -1.0315 C.3       1 <0>         0.0000
     15 C15        -1.1929    1.2297   -2.4846 C.3       1 <0>         0.0000
     16 C16        -1.0265   -0.7708   -1.0531 C.3       1 <0>         0.0000
     17 C17        -1.4118   -0.0704   -3.2846 C.3       1 <0>         0.0000
     18 C18        -1.9672   -1.0706   -2.2393 C.3       1 <0>         0.0000
     19 C19        -1.8949   -2.5509   -2.6941 C.3       1 <0>         0.0000
     20 N1         -0.5625   -3.0192   -3.0586 N.am      1 <0>         0.0000
     21 O1         -0.0771   -4.1125   -1.0935 O.2       1 <0>         0.0000
     22 F1        -11.6901    0.6473   -0.4995 F         1 <0>         0.0000
     23 H1         -5.6410   -0.2376    0.6158 H         1 <0>         0.0000
     24 H2         -6.4064   -0.4192   -3.6108 H         1 <0>         0.0000
     25 H3         -8.3543   -1.4373   -2.7056 H         1 <0>         0.0000
     26 H4         -7.3274    1.4163    0.3472 H         1 <0>         0.0000
     27 H5         -3.2704   -0.6335    0.2085 H         1 <0>         0.0000
     28 H6         -4.0384   -0.8467   -4.0199 H         1 <0>         0.0000
     29 H7        -10.7734   -1.0059   -2.2865 H         1 <0>         0.0000
     30 H8         -9.7497    1.8140    0.7818 H         1 <0>         0.0000
     31 H9          1.1684   -4.0739   -2.7166 H         1 <0>         0.0000
     32 H10         0.1252    1.0624   -0.7125 H         1 <0>         0.0000
     33 H11        -1.5823    1.2202   -0.3277 H         1 <0>         0.0000
     34 H12        -2.1048    1.8339   -2.5023 H         1 <0>         0.0000
     35 H13        -0.3932    1.8409   -2.9130 H         1 <0>         0.0000
     36 H14        -0.0587   -1.2303   -1.2707 H         1 <0>         0.0000
     37 H15        -1.3555   -1.2018   -0.1057 H         1 <0>         0.0000
     38 H16        -2.0607    0.0700   -4.1531 H         1 <0>         0.0000
     39 H17        -0.4482   -0.4456   -3.6505 H         1 <0>         0.0000
     40 H18        -2.5589   -2.7067   -3.5500 H         1 <0>         0.0000
     41 H19        -2.2471   -3.1917   -1.8830 H         1 <0>         0.0000
     42 H20        -0.2109   -2.8280   -3.9873 H         1 <0>         0.0000
@<TRIPOS>BOND
     1    1    5 ar
     2    1    9 ar
     3    1   23 1
     4    2    6 ar
     5    2    9 ar
     6    2   24 1
     7    3    7 ar
     8    3   10 ar
     9    3   25 1
    10    4    8 ar
    11    4   10 ar
    12    4   26 1
    13    5   11 ar
    14    5   27 1
    15    6   11 ar
    16    6   28 1
    17    7   12 ar
    18    7   29 1
    19    8   12 ar
    20    8   30 1
    21    9   10 1
    22   11   18 1
    23   12   22 1
    24   13   20 am
    25   13   21 2
    26   13   31 1
    27   14   15 1
    28   14   16 1
    29   14   32 1
    30   14   33 1
    31   15   17 1
    32   15   34 1
    33   15   35 1
    34   16   18 1
    35   16   36 1
    36   16   37 1
    37   17   18 1
    38   17   38 1
    39   17   39 1
    40   18   19 1
    41   19   20 1
    42   19   40 1
    43   19   41 1
    44   20   42 1
