@<TRIPOS>MOLECULE
*****
   40    41     0     0     0
SMALL
NO_CHARGES

@<TRIPOS>ATOM
      1 C1          4.0136   -1.6686    1.7675 C.ar      1 <0>         0.0000
      2 C2          3.5420   -0.3657    1.9539 C.ar      1 <0>         0.0000
      3 C3          3.4187   -2.4823    0.7974 C.ar      1 <0>         0.0000
      4 C4          2.4917    0.1223    1.1725 C.ar      1 <0>         0.0000
      5 C5          2.3675   -1.9906    0.0193 C.ar      1 <0>         0.0000
      6 C6         -4.9229    0.8754    0.7090 C.ar      1 <0>         0.0000
      7 C7         -4.8543   -1.3171    1.8059 C.ar      1 <0>         0.0000
      8 C8         -3.5599    1.0001    0.8810 C.ar      1 <0>         0.0000
      9 C9         -3.4901   -1.1880    1.9715 C.ar      1 <0>         0.0000
     10 C10         1.8958   -0.6812    0.1917 C.ar      1 <0>         0.0000
     11 C11        -5.6661   -0.2987    1.1518 C.ar      1 <0>         0.0000
     12 C12        -2.8219   -0.0249    1.5209 C.ar      1 <0>         0.0000
     13 C13        -0.0554    0.3639   -2.9722 C.2       1 <0>         0.0000
     14 C14        -2.2353    0.4040   -3.8987 C.3       1 <0>         0.0000
     15 C15         0.9153   -0.4419   -2.1388 C.3       1 <0>         0.0000
     16 C16        -0.6210   -0.6444   -0.1236 C.3       1 <0>         0.0000
     17 C17         0.7375   -0.1349   -0.6252 C.3       1 <0>         0.0000
     18 O1         -6.9118   -0.4214    0.9797 O.3       1 <0>         0.0000
     19 O2          0.1159    1.5170   -3.3236 O.2       1 <0>         0.0000
     20 O3         -0.6205    1.4542    1.4865 O.2       1 <0>         0.0000
     21 O4         -0.5239   -0.8741    2.5435 O.2       1 <0>         0.0000
     22 O5         -1.1797   -0.3406   -3.2558 O.3       1 <0>         0.0000
     23 S1         -1.0842    0.0423    1.5244 S.o2      1 <0>         0.0000
     24 H1          4.8282   -2.0508    2.3785 H         1 <0>         0.0000
     25 H2          3.9820    0.2690    2.7196 H         1 <0>         0.0000
     26 H3          3.7688   -3.5019    0.6515 H         1 <0>         0.0000
     27 H4          2.0978    1.1197    1.3463 H         1 <0>         0.0000
     28 H5          1.9075   -2.6411   -0.7212 H         1 <0>         0.0000
     29 H6         -5.4947    1.6719    0.2364 H         1 <0>         0.0000
     30 H7         -5.3721   -2.2028    2.1688 H         1 <0>         0.0000
     31 H8         -3.0369    1.8938    0.5458 H         1 <0>         0.0000
     32 H9         -2.9122   -1.9674    2.4637 H         1 <0>         0.0000
     33 H10        -3.0590   -0.3002   -4.0131 H         1 <0>         0.0000
     34 H11        -1.9022    0.7778   -4.8701 H         1 <0>         0.0000
     35 H12        -2.5391    1.2442   -3.2705 H         1 <0>         0.0000
     36 H13         1.9261   -0.1545   -2.4383 H         1 <0>         0.0000
     37 H14         0.7728   -1.5067   -2.3382 H         1 <0>         0.0000
     38 H15        -1.4271   -0.3399   -0.7922 H         1 <0>         0.0000
     39 H16        -0.6472   -1.7322   -0.0189 H         1 <0>         0.0000
     40 H17         0.7324    0.9526   -0.5134 H         1 <0>         0.0000
@<TRIPOS>BOND
     1    1    3 ar
     2    1    2 ar
     3    1   24 1
     4    2    4 ar
     5    2   25 1
     6    3    5 ar
     7    3   26 1
     8    4   10 ar
     9    4   27 1
    10    5   10 ar
    11    5   28 1
    12    6    8 ar
    13    6   11 ar
    14    6   29 1
    15    7    9 ar
    16    7   11 ar
    17    7   30 1
    18    8   12 ar
    19    8   31 1
    20    9   12 ar
    21    9   32 1
    22   10   17 1
    23   11   18 1
    24   12   23 1
    25   13   15 1
    26   13   19 2
    27   13   22 1
    28   14   22 1
    29   14   33 1
    30   14   34 1
    31   14   35 1
    32   15   17 1
    33   15   36 1
    34   15   37 1
    35   16   17 1
    36   16   23 1
    37   16   38 1
    38   16   39 1
    39   17   40 1
    40   20   23 2
    41   21   23 2
