@<TRIPOS>MOLECULE
*****
   42    44     0     0     0
SMALL
NO_CHARGES

@<TRIPOS>ATOM
      1 C1         -0.8021   -0.6883   -6.1852 C.ar      1 <0>         0.0000
      2 C2          1.1324   -2.1091   -6.0815 C.ar      1 <0>         0.0000
      3 C3          1.6459   -1.1923   -8.9327 C.ar      1 <0>         0.0000
      4 C4         -0.7540   -1.2655   -9.1657 C.ar      1 <0>         0.0000
      5 C5         -0.9355   -0.7729   -4.7999 C.ar      1 <0>         0.0000
      6 C6          0.9953   -2.1911   -4.6939 C.ar      1 <0>         0.0000
      7 C7          1.7889   -1.1113  -10.3191 C.ar      1 <0>         0.0000
      8 C8         -0.6322   -1.1847  -10.5541 C.ar      1 <0>         0.0000
      9 C9          0.2363   -1.3562   -6.8571 C.ar      1 <0>         0.0000
     10 C10         0.3775   -1.2705   -8.3306 C.ar      1 <0>         0.0000
     11 C11        -0.0439   -1.5295   -4.0212 C.ar      1 <0>         0.0000
     12 C12         0.6422   -1.1087  -11.1069 C.ar      1 <0>         0.0000
     13 C13         2.8973   -0.3765   -1.3646 C.2       1 <0>         0.0000
     14 C14        -0.1607   -2.8692   -0.4336 C.3       1 <0>         0.0000
     15 C15        -1.5429   -2.1657   -0.5497 C.3       1 <0>         0.0000
     16 C16         0.4535   -2.8125   -1.8454 C.3       1 <0>         0.0000
     17 C17        -1.6265   -1.6259   -1.9984 C.3       1 <0>         0.0000
     18 C18        -0.1634   -1.5591   -2.5060 C.3       1 <0>         0.0000
     19 C19         0.4874   -0.2651   -1.9400 C.3       1 <0>         0.0000
     20 N1          1.9007   -0.1292   -2.2595 N.am      1 <0>         0.0000
     21 O1          2.7365   -0.6916   -0.1903 O.2       1 <0>         0.0000
     22 F1          0.7709   -1.0299  -12.4569 F         1 <0>         0.0000
     23 H1         -1.4986   -0.0740   -6.7499 H         1 <0>         0.0000
     24 H2          1.9294   -2.6641   -6.5695 H         1 <0>         0.0000
     25 H3          2.5352   -1.1681   -8.3093 H         1 <0>         0.0000
     26 H4         -1.7441   -1.3540   -8.7279 H         1 <0>         0.0000
     27 H5         -1.7470   -0.2335   -4.3188 H         1 <0>         0.0000
     28 H6          1.7016   -2.7950   -4.1330 H         1 <0>         0.0000
     29 H7          2.7659   -1.0408  -10.7876 H         1 <0>         0.0000
     30 H8         -1.5025   -1.1912  -11.2031 H         1 <0>         0.0000
     31 H9          3.9012   -0.2525   -1.8141 H         1 <0>         0.0000
     32 H10         0.4864   -2.3441    0.2734 H         1 <0>         0.0000
     33 H11        -0.2502   -3.9002   -0.0800 H         1 <0>         0.0000
     34 H12        -2.3702   -2.8510   -0.3443 H         1 <0>         0.0000
     35 H13        -1.6253   -1.3521    0.1773 H         1 <0>         0.0000
     36 H14         1.5457   -2.7897   -1.8154 H         1 <0>         0.0000
     37 H15         0.1576   -3.6930   -2.4275 H         1 <0>         0.0000
     38 H16        -2.1852   -2.3198   -2.6353 H         1 <0>         0.0000
     39 H17        -2.1384   -0.6592   -2.0517 H         1 <0>         0.0000
     40 H18         0.4095   -0.2419   -0.8524 H         1 <0>         0.0000
     41 H19        -0.0467    0.6051   -2.3359 H         1 <0>         0.0000
     42 H20         2.1602    0.0415   -3.2233 H         1 <0>         0.0000
@<TRIPOS>BOND
     1    1    5 ar
     2    1    9 ar
     3    1   23 1
     4    2    6 ar
     5    2    9 ar
     6    2   24 1
     7    3    7 ar
     8    3   10 ar
     9    3   25 1
    10    4    8 ar
    11    4   10 ar
    12    4   26 1
    13    5   11 ar
    14    5   27 1
    15    6   11 ar
    16    6   28 1
    17    7   12 ar
    18    7   29 1
    19    8   12 ar
    20    8   30 1
    21    9   10 1
    22   11   18 1
    23   12   22 1
    24   13   20 am
    25   13   21 2
    26   13   31 1
    27   14   15 1
    28   14   16 1
    29   14   32 1
    30   14   33 1
    31   15   17 1
    32   15   34 1
    33   15   35 1
    34   16   18 1
    35   16   36 1
    36   16   37 1
    37   17   18 1
    38   17   38 1
    39   17   39 1
    40   18   19 1
    41   19   20 1
    42   19   40 1
    43   19   41 1
    44   20   42 1
