@<TRIPOS>MOLECULE
*****
   56    58     0     0     0
SMALL
NO_CHARGES

@<TRIPOS>ATOM
      1 C1          0.4908    0.7243    3.5250 C.ar      1 <0>         0.0000
      2 C2         -0.3973    2.9456    3.7073 C.ar      1 <0>         0.0000
      3 C3          1.0245    0.8222    4.8061 C.ar      1 <0>         0.0000
      4 C4          0.1278    3.0584    5.0018 C.ar      1 <0>         0.0000
      5 C5         -0.2304    1.7852    2.9474 C.ar      1 <0>         0.0000
      6 C6          0.8460    1.9936    5.5573 C.ar      1 <0>         0.0000
      7 C7         -2.3074   -1.3989   -0.3862 C.3       1 <0>         0.0000
      8 C8         -1.3029   -2.4066   -0.9893 C.3       1 <0>         0.0000
      9 C9          0.4172    1.8391    0.4989 C.3       1 <0>         0.0000
     10 C10         0.9721    0.4845    0.0517 C.3       1 <0>         0.0000
     11 C11        -1.5197    0.3771    1.2756 C.3       1 <0>         0.0000
     12 C12        -1.5348   -0.0613   -0.1931 C.3       1 <0>         0.0000
     13 C13         0.0755   -1.8593   -0.5894 C.3       1 <0>         0.0000
     14 C14        -0.7527    1.6980    1.5168 C.3       1 <0>         0.0000
     15 C15        -0.0874   -0.3212   -0.7285 C.3       1 <0>         0.0000
     16 C16        -0.0160    0.0563   -2.2205 C.3       1 <0>         0.0000
     17 C17         2.7418   -2.7414    0.6189 C.3       1 <0>         0.0000
     18 C18         1.2950   -3.3510    2.5807 C.3       1 <0>         0.0000
     19 C19         0.9811   -4.5450    0.3916 C.3       1 <0>         0.0000
     20 C20         1.2341    3.1608    7.6080 C.3       1 <0>         0.0000
     21 C21         1.3441   -3.2085    1.0568 C.3       1 <0>         0.0000
     22 O1         -1.6515    2.8171    1.3458 O.3       1 <0>         0.0000
     23 O2          1.4034    1.9942    6.8119 O.3       1 <0>         0.0000
     24 O3          0.3521   -2.1938    0.7775 O.3       1 <0>         0.0000
     25 H1          0.6389   -0.2009    2.9778 H         1 <0>         0.0000
     26 H2         -0.9535    3.7747    3.2856 H         1 <0>         0.0000
     27 H3          1.5775   -0.0022    5.2477 H         1 <0>         0.0000
     28 H4         -0.0347    3.9759    5.5567 H         1 <0>         0.0000
     29 H5         -3.1913   -1.2781   -1.0193 H         1 <0>         0.0000
     30 H6         -2.6596   -1.7599    0.5847 H         1 <0>         0.0000
     31 H7         -1.4521   -3.4233   -0.6209 H         1 <0>         0.0000
     32 H8         -1.3843   -2.4402   -2.0808 H         1 <0>         0.0000
     33 H9          1.2022    2.4655    0.9314 H         1 <0>         0.0000
     34 H10         0.0404    2.3813   -0.3784 H         1 <0>         0.0000
     35 H11         1.8601    0.6335   -0.5741 H         1 <0>         0.0000
     36 H12         1.3000   -0.0819    0.9235 H         1 <0>         0.0000
     37 H13        -2.5392    0.5166    1.6511 H         1 <0>         0.0000
     38 H14        -1.0782   -0.4342    1.8555 H         1 <0>         0.0000
     39 H15        -2.0020    0.7264   -0.7995 H         1 <0>         0.0000
     40 H16         0.8745   -2.2251   -1.2420 H         1 <0>         0.0000
     41 H17        -0.8323   -0.3830   -2.8020 H         1 <0>         0.0000
     42 H18         0.9309   -0.2694   -2.6667 H         1 <0>         0.0000
     43 H19        -0.0813    1.1431   -2.3424 H         1 <0>         0.0000
     44 H20         2.8126   -2.6151   -0.4655 H         1 <0>         0.0000
     45 H21         2.9902   -1.7868    1.0913 H         1 <0>         0.0000
     46 H22         3.4967   -3.4779    0.9134 H         1 <0>         0.0000
     47 H23         0.2884   -3.6342    2.9019 H         1 <0>         0.0000
     48 H24         1.5534   -2.4026    3.0613 H         1 <0>         0.0000
     49 H25         2.0007   -4.1143    2.9230 H         1 <0>         0.0000
     50 H26        -0.0087   -4.8783    0.7176 H         1 <0>         0.0000
     51 H27         0.9769   -4.4689   -0.6999 H         1 <0>         0.0000
     52 H28         1.7101   -5.3142    0.6669 H         1 <0>         0.0000
     53 H29         1.7423    2.9564    8.5518 H         1 <0>         0.0000
     54 H30         0.1734    3.3628    7.8038 H         1 <0>         0.0000
     55 H31         1.6892    4.0400    7.1344 H         1 <0>         0.0000
     56 H32        -1.9701    2.7899    0.4302 H         1 <0>         0.0000
@<TRIPOS>BOND
     1    1    3 ar
     2    1    5 ar
     3    1   25 1
     4    2    4 ar
     5    2    5 ar
     6    2   26 1
     7    3    6 ar
     8    3   27 1
     9    4    6 ar
    10    4   28 1
    11    5   14 1
    12    6   23 1
    13    7    8 1
    14    7   12 1
    15    7   29 1
    16    7   30 1
    17    8   13 1
    18    8   31 1
    19    8   32 1
    20    9   10 1
    21    9   14 1
    22    9   33 1
    23    9   34 1
    24   10   15 1
    25   10   35 1
    26   10   36 1
    27   11   12 1
    28   11   14 1
    29   11   37 1
    30   11   38 1
    31   12   15 1
    32   12   39 1
    33   13   15 1
    34   13   24 1
    35   13   40 1
    36   14   22 1
    37   15   16 1
    38   16   41 1
    39   16   42 1
    40   16   43 1
    41   17   21 1
    42   17   44 1
    43   17   45 1
    44   17   46 1
    45   18   21 1
    46   18   47 1
    47   18   48 1
    48   18   49 1
    49   19   21 1
    50   19   50 1
    51   19   51 1
    52   19   52 1
    53   20   23 1
    54   20   53 1
    55   20   54 1
    56   20   55 1
    57   21   24 1
    58   22   56 1
