@<TRIPOS>MOLECULE
*****
   65    69     0     0     0
SMALL
NO_CHARGES

@<TRIPOS>ATOM
      1 C1         -6.0487   -5.6734   11.2006 C.ar      1 <0>         0.0000
      2 C2         -6.4059   -4.6153   10.3271 C.ar      1 <0>         0.0000
      3 C3          6.1245    1.5778   -2.5413 C.ar      1 <0>         0.0000
      4 C4          7.0996    0.6595   -2.1089 C.ar      1 <0>         0.0000
      5 C5         -4.7838   -6.2240   11.1403 C.ar      1 <0>         0.0000
      6 C6         -5.4935   -4.1287    9.4119 C.ar      1 <0>         0.0000
      7 C7          4.8616    1.6115   -1.9459 C.ar      1 <0>         0.0000
      8 C8          2.1394    1.0664    0.0264 C.ar      1 <0>         0.0000
      9 C9          6.8352   -0.2469   -1.0775 C.ar      1 <0>         0.0000
     10 C10         1.2461    0.6084    0.9866 C.ar      1 <0>         0.0000
     11 C11        -2.5110   -6.2812   10.1258 C.ar      1 <0>         0.0000
     12 C12        -3.2277   -4.1948    8.3889 C.ar      1 <0>         0.0000
     13 C13         2.8690   -1.0390    1.7999 C.ar      1 <0>         0.0000
     14 C14        -3.8251   -5.7426   10.2096 C.ar      1 <0>         0.0000
     15 C15        -4.1845   -4.6754    9.3278 C.ar      1 <0>         0.0000
     16 C16         4.5736    0.7173   -0.9071 C.ar      1 <0>         0.0000
     17 C17         3.4133    0.4864   -0.0683 C.ar      1 <0>         0.0000
     18 C18         5.5678   -0.2112   -0.4896 C.ar      1 <0>         0.0000
     19 C19         3.7519   -0.5669    0.8186 C.ar      1 <0>         0.0000
     20 C20         1.6076   -0.4357    1.8692 C.ar      1 <0>         0.0000
     21 C21        -1.5976   -5.8058    9.2165 C.ar      1 <0>         0.0000
     22 C22        -1.9631   -4.7444    8.3207 C.ar      1 <0>         0.0000
     23 C23         7.2219   -2.1246    3.4567 C.2       1 <0>         0.0000
     24 C24         0.7346   -5.5846    9.5859 C.3       1 <0>         0.0000
     25 C25         6.4956   -1.1723    2.5209 C.3       1 <0>         0.0000
     26 C26        -0.2948   -2.0402    4.5741 C.3       1 <0>         0.0000
     27 C27        -0.0684   -3.1333    5.6238 C.3       1 <0>         0.0000
     28 C28         5.8111   -1.9101    1.3619 C.3       1 <0>         0.0000
     29 C29         0.9330   -1.8397    3.6981 C.3       1 <0>         0.0000
     30 C30        -1.2991   -3.3436    6.4932 C.3       1 <0>         0.0000
     31 N1          5.0436   -1.0035    0.5346 N.pl3     1 <0>         0.0000
     32 O1          7.1725   -3.3302    3.3773 O.2       1 <0>         0.0000
     33 O2          7.9546   -1.5335    4.4454 O.3       1 <0>         0.0000
     34 O3         -0.3572   -6.3949    9.1272 O.3       1 <0>         0.0000
     35 O4          0.6418   -0.7921    2.7726 O.3       1 <0>         0.0000
     36 O5         -0.9889   -4.3678    7.4398 O.3       1 <0>         0.0000
     37 H1         -6.7747   -6.0495   11.9165 H         1 <0>         0.0000
     38 H2         -7.4040   -4.1880   10.3800 H         1 <0>         0.0000
     39 H3          6.3606    2.2680   -3.3466 H         1 <0>         0.0000
     40 H4          8.0765    0.6516   -2.5849 H         1 <0>         0.0000
     41 H5         -4.5061   -7.0366   11.8080 H         1 <0>         0.0000
     42 H6         -5.7703   -3.3178    8.7416 H         1 <0>         0.0000
     43 H7          4.1142    2.3255   -2.2829 H         1 <0>         0.0000
     44 H8          1.8475    1.8721   -0.6423 H         1 <0>         0.0000
     45 H9          7.5952   -0.9542   -0.7570 H         1 <0>         0.0000
     46 H10         0.2544    1.0385    1.0857 H         1 <0>         0.0000
     47 H11        -2.2088   -7.0931   10.7821 H         1 <0>         0.0000
     48 H12        -3.5223   -3.3935    7.7200 H         1 <0>         0.0000
     49 H13         3.1521   -1.8437    2.4673 H         1 <0>         0.0000
     50 H14         1.6323   -6.1964    9.4766 H         1 <0>         0.0000
     51 H15         0.5973   -5.3207   10.6423 H         1 <0>         0.0000
     52 H16         0.8341   -4.6750    8.9862 H         1 <0>         0.0000
     53 H17         7.1972   -0.4278    2.1257 H         1 <0>         0.0000
     54 H18         5.7443   -0.6178    3.0971 H         1 <0>         0.0000
     55 H19        -1.1455   -2.2965    3.9321 H         1 <0>         0.0000
     56 H20        -0.5374   -1.0881    5.0603 H         1 <0>         0.0000
     57 H21         0.7772   -2.8700    6.2702 H         1 <0>         0.0000
     58 H22         0.1846   -4.0837    5.1401 H         1 <0>         0.0000
     59 H23         5.1547   -2.6901    1.7511 H         1 <0>         0.0000
     60 H24         6.5551   -2.4181    0.7453 H         1 <0>         0.0000
     61 H25         1.8036   -1.5655    4.3108 H         1 <0>         0.0000
     62 H26         1.1750   -2.7636    3.1549 H         1 <0>         0.0000
     63 H27        -2.1591   -3.6511    5.8830 H         1 <0>         0.0000
     64 H28        -1.5671   -2.4172    7.0197 H         1 <0>         0.0000
     65 H29         7.8972   -0.5654    4.3701 H         1 <0>         0.0000
@<TRIPOS>BOND
     1    1    2 ar
     2    1    5 ar
     3    1   37 1
     4    2    6 ar
     5    2   38 1
     6    3    4 ar
     7    3    7 ar
     8    3   39 1
     9    4    9 ar
    10    4   40 1
    11    5   14 ar
    12    5   41 1
    13    6   15 ar
    14    6   42 1
    15    7   16 ar
    16    7   43 1
    17    8   10 ar
    18    8   17 ar
    19    8   44 1
    20    9   18 ar
    21    9   45 1
    22   10   20 ar
    23   10   46 1
    24   11   14 ar
    25   11   21 ar
    26   11   47 1
    27   12   15 ar
    28   12   22 ar
    29   12   48 1
    30   13   19 ar
    31   13   20 ar
    32   13   49 1
    33   14   15 ar
    34   16   17 1
    35   16   18 ar
    36   17   19 ar
    37   18   31 1
    38   19   31 1
    39   20   35 1
    40   21   22 ar
    41   21   34 1
    42   22   36 1
    43   23   25 1
    44   23   32 2
    45   23   33 1
    46   24   34 1
    47   24   50 1
    48   24   51 1
    49   24   52 1
    50   25   28 1
    51   25   53 1
    52   25   54 1
    53   26   27 1
    54   26   29 1
    55   26   55 1
    56   26   56 1
    57   27   30 1
    58   27   57 1
    59   27   58 1
    60   28   31 1
    61   28   59 1
    62   28   60 1
    63   29   35 1
    64   29   61 1
    65   29   62 1
    66   30   36 1
    67   30   63 1
    68   30   64 1
    69   33   65 1
