@<TRIPOS>MOLECULE
*****
   41    42     0     0     0
SMALL
NO_CHARGES

@<TRIPOS>ATOM
      1 C1          0.9022    1.6601   -0.0180 C.1       1 <0>         0.0000
      2 C2         -4.4261    0.6252   -1.4954 C.ar      1 <0>         0.0000
      3 C3         -4.2884    1.8766    0.5595 C.ar      1 <0>         0.0000
      4 C4         -5.8209    0.6557   -1.4349 C.ar      1 <0>         0.0000
      5 C5         -5.6844    1.9181    0.6423 C.ar      1 <0>         0.0000
      6 C6         -1.9678   -2.6885   -3.4309 C.2       1 <0>         0.0000
      7 C7         -1.4994   -0.6556   -3.7083 C.2       1 <0>         0.0000
      8 C8         -3.6405    1.2345   -0.5037 C.ar      1 <0>         0.0000
      9 C9         -6.4248    1.3037   -0.3610 C.ar      1 <0>         0.0000
     10 C10         0.3898    0.3129    1.9737 C.3       1 <0>         0.0000
     11 C11         2.2910   -0.2879    0.4392 C.3       1 <0>         0.0000
     12 C12        -2.1299    1.1599   -0.5649 C.3       1 <0>         0.0000
     13 C13        -1.6335   -0.2429   -0.1673 C.3       1 <0>         0.0000
     14 C14         0.2549   -0.4763   -1.8742 C.3       1 <0>         0.0000
     15 C15         0.8486    0.2777    0.4977 C.3       1 <0>         0.0000
     16 C16        -0.1415   -0.5852   -0.3776 C.3       1 <0>         0.0000
     17 N1          0.9818    2.7437   -0.4338 N.1       1 <0>         0.0000
     18 N2         -2.3090   -1.5996   -4.1758 N.2       1 <0>         0.0000
     19 N3         -1.0012   -2.4721   -2.5424 N.2       1 <0>         0.0000
     20 N4         -0.7048   -1.1536   -2.7353 N.pl3     1 <0>         0.0000
     21 O1          0.0660   -1.9267    0.0677 O.3       1 <0>         0.0000
     22 F1         -7.7824    1.3395   -0.2937 F         1 <0>         0.0000
     23 H1         -3.9483    0.1186   -2.3310 H         1 <0>         0.0000
     24 H2         -3.6974    2.3589    1.3349 H         1 <0>         0.0000
     25 H3         -6.4348    0.1919   -2.2010 H         1 <0>         0.0000
     26 H4         -6.1937    2.4172    1.4610 H         1 <0>         0.0000
     27 H5         -2.4325   -3.6596   -3.5413 H         1 <0>         0.0000
     28 H6         -1.4519    0.3736   -4.0405 H         1 <0>         0.0000
     29 H7          0.2637   -0.7110    2.3323 H         1 <0>         0.0000
     30 H8         -0.5504    0.8525    2.1002 H         1 <0>         0.0000
     31 H9          1.1475    0.8105    2.5844 H         1 <0>         0.0000
     32 H10         2.2866   -1.3174    0.7983 H         1 <0>         0.0000
     33 H11         2.7035   -0.2690   -0.5718 H         1 <0>         0.0000
     34 H12         2.9451    0.3149    1.0743 H         1 <0>         0.0000
     35 H13        -1.7003    1.9217    0.0892 H         1 <0>         0.0000
     36 H14        -1.7954    1.4105   -1.5769 H         1 <0>         0.0000
     37 H15        -2.2072   -0.9844   -0.7305 H         1 <0>         0.0000
     38 H16        -1.8774   -0.4343    0.8800 H         1 <0>         0.0000
     39 H17         1.2322   -0.9378   -2.0233 H         1 <0>         0.0000
     40 H18         0.3050    0.5626   -2.2024 H         1 <0>         0.0000
     41 H19        -0.3522   -2.5193   -0.5899 H         1 <0>         0.0000
@<TRIPOS>BOND
     1    1   15 1
     2    1   17 3
     3    2    4 ar
     4    2    8 ar
     5    2   23 1
     6    3    5 ar
     7    3    8 ar
     8    3   24 1
     9    4    9 ar
    10    4   25 1
    11    5    9 ar
    12    5   26 1
    13    6   18 1
    14    6   19 2
    15    6   27 1
    16    7   18 2
    17    7   20 1
    18    7   28 1
    19    8   12 1
    20    9   22 1
    21   10   15 1
    22   10   29 1
    23   10   30 1
    24   10   31 1
    25   11   15 1
    26   11   32 1
    27   11   33 1
    28   11   34 1
    29   12   13 1
    30   12   35 1
    31   12   36 1
    32   13   16 1
    33   13   37 1
    34   13   38 1
    35   14   16 1
    36   14   20 1
    37   14   39 1
    38   14   40 1
    39   15   16 1
    40   16   21 1
    41   19   20 1
    42   21   41 1
