@<TRIPOS>MOLECULE
*****
   38    39     0     0     0
SMALL
NO_CHARGES

@<TRIPOS>ATOM
      1 C1         -3.1541    1.1560    3.3885 C.ar      1 <0>         0.0000
      2 C2         -3.1127    2.2889    4.1951 C.ar      1 <0>         0.0000
      3 C3         -1.5888    1.1650    5.6689 C.ar      1 <0>         0.0000
      4 C4         -2.4526   -0.0210    3.7089 C.ar      1 <0>         0.0000
      5 C5         -2.3174    2.3122    5.3518 C.ar      1 <0>         0.0000
      6 C6         -1.6681    0.0127    4.8742 C.ar      1 <0>         0.0000
      7 C7         -2.5809   -1.1890    2.7023 C.2       1 <0>         0.0000
      8 C8         -0.9490    4.0444    6.7614 C.3       1 <0>         0.0000
      9 C9         -1.6844    4.8288    5.6916 C.3       1 <0>         0.0000
     10 C10        -2.2647    3.5320    6.2222 C.3       1 <0>         0.0000
     11 C11         0.6849   -2.9475    2.1361 C.3       1 <0>         0.0000
     12 C12         0.8820   -0.5492    2.8393 C.3       1 <0>         0.0000
     13 C13         2.2575   -2.3154    4.0040 C.3       1 <0>         0.0000
     14 C14         0.9090   -2.0084    3.3332 C.3       1 <0>         0.0000
     15 N1         -0.1838   -2.3591    4.2918 N.pl3     1 <0>         0.0000
     16 O1         -2.5809   -0.8396    1.4976 O.co2     1 <0>         0.0000
     17 O2         -2.6683   -2.3555    3.1886 O.co2     1 <0>         0.0000
     18 O3          0.5494   -0.7390    6.0998 O.2       1 <0>         0.0000
     19 O4         -1.5285   -2.1528    6.4126 O.2       1 <0>         0.0000
     20 S1         -0.6606   -1.3670    5.5293 S.o2      1 <0>         0.0000
     21 H1         -3.7169    1.1534    2.4601 H         1 <0>         0.0000
     22 H2         -3.6753    3.1786    3.9161 H         1 <0>         0.0000
     23 H3         -0.9350    1.1639    6.5354 H         1 <0>         0.0000
     24 H4         -0.0489    3.5144    6.4647 H         1 <0>         0.0000
     25 H5         -0.9266    4.4452    7.7713 H         1 <0>         0.0000
     26 H6         -2.1634    5.7637    5.9720 H         1 <0>         0.0000
     27 H7         -1.2737    4.8102    4.6861 H         1 <0>         0.0000
     28 H8         -3.1169    3.6505    6.8908 H         1 <0>         0.0000
     29 H9          0.6934   -3.9931    2.4626 H         1 <0>         0.0000
     30 H10        -0.2746   -2.7402    1.6526 H         1 <0>         0.0000
     31 H11         1.4853   -2.8069    1.4013 H         1 <0>         0.0000
     32 H12         1.0051    0.1528    3.6681 H         1 <0>         0.0000
     33 H13        -0.0477   -0.3230    2.3121 H         1 <0>         0.0000
     34 H14         1.7130   -0.3933    2.1410 H         1 <0>         0.0000
     35 H15         2.4074   -1.6712    4.8730 H         1 <0>         0.0000
     36 H16         2.2797   -3.3571    4.3402 H         1 <0>         0.0000
     37 H17         3.0787   -2.1559    3.2943 H         1 <0>         0.0000
     38 H18        -1.0592   -2.6764    3.8326 H         1 <0>         0.0000
@<TRIPOS>BOND
     1    1    2 ar
     2    1    4 ar
     3    1   21 1
     4    2    5 ar
     5    2   22 1
     6    3    5 ar
     7    3    6 ar
     8    3   23 1
     9    4    6 ar
    10    4    7 1
    11    5   10 1
    12    6   20 1
    13    7   16 1
    14    7   17 2
    15    8    9 1
    16    8   10 1
    17    8   24 1
    18    8   25 1
    19    9   10 1
    20    9   26 1
    21    9   27 1
    22   10   28 1
    23   11   14 1
    24   11   29 1
    25   11   30 1
    26   11   31 1
    27   12   14 1
    28   12   32 1
    29   12   33 1
    30   12   34 1
    31   13   14 1
    32   13   35 1
    33   13   36 1
    34   13   37 1
    35   14   15 1
    36   15   20 1
    37   15   38 1
    38   18   20 2
    39   19   20 2
