@<TRIPOS>MOLECULE
*****
   47    51     0     0     0
SMALL
NO_CHARGES

@<TRIPOS>ATOM
      1 C1         -0.7500    4.2768    4.1744 C.ar      1 <0>         0.0000
      2 C2          1.3637   -2.0820    0.1396 C.ar      1 <0>         0.0000
      3 C3         -1.4533    3.4812    3.2668 C.ar      1 <0>         0.0000
      4 C4          0.2746   -1.3589    0.6225 C.ar      1 <0>         0.0000
      5 C5         -0.5864    3.8669    5.5011 C.ar      1 <0>         0.0000
      6 C6          1.7599   -0.2801    2.1983 C.ar      1 <0>         0.0000
      7 C7          3.7552   -4.0567   -0.1216 C.ar      1 <0>         0.0000
      8 C8         -1.8450    1.8435    5.0033 C.ar      1 <0>         0.0000
      9 C9          4.8921   -1.9796   -0.5066 C.ar      1 <0>         0.0000
     10 C10         5.9037   -3.9084   -1.2264 C.ar      1 <0>         0.0000
     11 C11         2.6599   -1.9288    0.6510 C.ar      1 <0>         0.0000
     12 C12         2.8438   -1.0221    1.7178 C.ar      1 <0>         0.0000
     13 C13         3.7822   -2.6649    0.0184 C.ar      1 <0>         0.0000
     14 C14        -2.0093    2.2586    3.6733 C.ar      1 <0>         0.0000
     15 C15         0.4754   -0.4320    1.6589 C.ar      1 <0>         0.0000
     16 C16         4.8350   -4.6620   -0.7488 C.ar      1 <0>         0.0000
     17 C17        -1.1404    2.6484    5.8996 C.ar      1 <0>         0.0000
     18 C18         4.1396   -0.8642    2.3982 C.2       1 <0>         0.0000
     19 C19        -1.8867    0.3832    1.8937 C.2       1 <0>         0.0000
     20 C20        -4.1273    0.8929    2.9986 C.3       1 <0>         0.0000
     21 C21        -3.9182    1.9252    1.9328 C.3       1 <0>         0.0000
     22 C22        -2.7131    1.3740    2.6873 C.3       1 <0>         0.0000
     23 N1          5.9247   -2.5741   -1.1098 N.ar      1 <0>         0.0000
     24 N2          5.0292   -1.8799    2.6252 N.2       1 <0>         0.0000
     25 N3          4.5627    0.2906    2.9268 N.2       1 <0>         0.0000
     26 N4          6.0283   -1.3654    3.2989 N.2       1 <0>         0.0000
     27 N5          5.7232   -0.0800    3.4647 N.pl3     1 <0>         0.0000
     28 N6         -0.5472    0.3662    2.2069 N.am      1 <0>         0.0000
     29 O1         -2.3991   -0.3421    1.0426 O.2       1 <0>         0.0000
     30 F1          4.8546   -6.0102   -0.8944 F         1 <0>         0.0000
     31 Cl1        -0.9460    2.1162    7.5615 Cl        1 <0>         0.0000
     32 H1         -0.3242    5.2233    3.8528 H         1 <0>         0.0000
     33 H2          1.2084   -2.7682   -0.6885 H         1 <0>         0.0000
     34 H3         -1.5757    3.8043    2.2364 H         1 <0>         0.0000
     35 H4         -0.7130   -1.4929    0.2040 H         1 <0>         0.0000
     36 H5         -0.0435    4.4795    6.2138 H         1 <0>         0.0000
     37 H6          1.9242    0.4081    3.0237 H         1 <0>         0.0000
     38 H7          2.9377   -4.6559    0.2685 H         1 <0>         0.0000
     39 H8         -2.2652    0.8982    5.3336 H         1 <0>         0.0000
     40 H9          4.9356   -0.8940   -0.4387 H         1 <0>         0.0000
     41 H10         6.7478   -4.3947   -1.7110 H         1 <0>         0.0000
     42 H11        -4.5478    1.2119    3.9473 H         1 <0>         0.0000
     43 H12        -4.3718   -0.1145    2.6800 H         1 <0>         0.0000
     44 H13        -4.0220    1.6083    0.9008 H         1 <0>         0.0000
     45 H14        -4.1948    2.9517    2.1521 H         1 <0>         0.0000
     46 H15         6.3381    0.5653    3.9489 H         1 <0>         0.0000
     47 H16        -0.2519    1.0112    2.9298 H         1 <0>         0.0000
@<TRIPOS>BOND
     1    1    3 ar
     2    1    5 ar
     3    1   32 1
     4    2    4 ar
     5    2   11 ar
     6    2   33 1
     7    3   14 ar
     8    3   34 1
     9    4   15 ar
    10    4   35 1
    11    5   17 ar
    12    5   36 1
    13    6   12 ar
    14    6   15 ar
    15    6   37 1
    16    7   13 ar
    17    7   16 ar
    18    7   38 1
    19    8   14 ar
    20    8   17 ar
    21    8   39 1
    22    9   13 ar
    23    9   23 ar
    24    9   40 1
    25   10   16 ar
    26   10   23 ar
    27   10   41 1
    28   11   12 ar
    29   11   13 1
    30   12   18 1
    31   14   22 1
    32   15   28 1
    33   16   30 1
    34   17   31 1
    35   18   24 1
    36   18   25 2
    37   19   22 1
    38   19   28 am
    39   19   29 2
    40   20   21 1
    41   20   22 1
    42   20   42 1
    43   20   43 1
    44   21   22 1
    45   21   44 1
    46   21   45 1
    47   24   26 2
    48   25   27 1
    49   26   27 1
    50   27   46 1
    51   28   47 1
