@<TRIPOS>MOLECULE
*****
   28    29     0     0     0
SMALL
NO_CHARGES

@<TRIPOS>ATOM
      1 C1         -6.3562    0.8399    1.7275 C.ar      1 <0>         0.0000
      2 C2         -5.4275   -0.1274    2.1128 C.ar      1 <0>         0.0000
      3 C3         -5.8506    1.9698    1.0850 C.ar      1 <0>         0.0000
      4 C4         -3.7311    1.1433    1.2751 C.ar      1 <0>         0.0000
      5 C5         -2.1823    2.4537   -1.1238 C.3       1 <0>         0.0000
      6 C6         -0.5194    0.8033   -0.6107 C.3       1 <0>         0.0000
      7 C7         -2.0604    2.2079   -2.6181 C.3       1 <0>         0.0000
      8 C8         -0.3058    0.4779   -2.0839 C.3       1 <0>         0.0000
      9 C9         -2.2440    1.3136    1.0418 C.3       1 <0>         0.0000
     10 N1         -4.1129    0.0147    1.8863 N.ar      1 <0>         0.0000
     11 N2         -4.5384    2.1326    0.8586 N.ar      1 <0>         0.0000
     12 N3         -1.8959    1.2236   -0.3915 N.3       1 <0>         0.0000
     13 N4         -0.6602    1.6946   -2.9218 N.4       1 <0>         0.0000
     14 H1         -7.4176    0.7207    1.9189 H         1 <0>         0.0000
     15 H2         -5.7371   -1.0414    2.6160 H         1 <0>         0.0000
     16 H3         -6.5065    2.7707    0.7487 H         1 <0>         0.0000
     17 H4         -1.5108    3.2830   -0.8225 H         1 <0>         0.0000
     18 H5         -3.2029    2.7739   -0.9042 H         1 <0>         0.0000
     19 H6         -0.3175   -0.1097   -0.0448 H         1 <0>         0.0000
     20 H7          0.2214    1.5604   -0.2840 H         1 <0>         0.0000
     21 H8         -2.7522    1.4315   -2.9487 H         1 <0>         0.0000
     22 H9         -2.2085    3.1168   -3.2048 H         1 <0>         0.0000
     23 H10         0.7304    0.2158   -2.3070 H         1 <0>         0.0000
     24 H11        -0.9724   -0.3234   -2.4067 H         1 <0>         0.0000
     25 H12        -1.9073    2.2692    1.4736 H         1 <0>         0.0000
     26 H13        -1.7388    0.5032    1.5675 H         1 <0>         0.0000
     27 H14         0.0148    2.4429   -2.7223 H         1 <0>         0.0000
     28 H15        -0.5684    1.4758   -3.9200 H         1 <0>         0.0000
@<TRIPOS>BOND
     1    1    3 ar
     2    1    2 ar
     3    1   14 1
     4    2   10 ar
     5    2   15 1
     6    3   11 ar
     7    3   16 1
     8    4    9 1
     9    4   11 ar
    10    4   10 ar
    11    5    7 1
    12    5   12 1
    13    5   17 1
    14    5   18 1
    15    6    8 1
    16    6   12 1
    17    6   19 1
    18    6   20 1
    19    7   13 1
    20    7   21 1
    21    7   22 1
    22    8   13 1
    23    8   23 1
    24    8   24 1
    25    9   12 1
    26    9   25 1
    27    9   26 1
    28   13   27 1
    29   13   28 1
