@<TRIPOS>MOLECULE
*****
   31    33     0     0     0
SMALL
NO_CHARGES

@<TRIPOS>ATOM
      1 C1         -0.8675    0.6064    1.6456 C.3       1 <0>         0.0000
      2 C2         -2.3628    1.9040    0.0451 C.3       1 <0>         0.0000
      3 C3         -0.6088    1.0357   -1.3875 C.3       1 <0>         0.0000
      4 C4          0.0630   -1.3979   -1.2950 C.3       1 <0>         0.0000
      5 C5         -2.1873    0.5993    0.8276 C.3       1 <0>         0.0000
      6 C6         -0.0401   -0.3400    0.8326 C.3       1 <0>         0.0000
      7 C7         -0.6609   -0.2775   -0.5552 C.3       1 <0>         0.0000
      8 C8          2.6584   -2.9843   -2.2054 C.3       1 <0>         0.0000
      9 C9          2.2294   -2.5534   -0.8442 C.3       1 <0>         0.0000
     10 N1         -1.1314    2.2118   -0.6874 N.3       1 <0>         0.0000
     11 N2          1.5354   -1.2417   -0.8914 N.pl3     1 <0>         0.0000
     12 O1          2.3509   -0.9721    1.6477 O.2       1 <0>         0.0000
     13 O2          2.0318    1.1196    0.2435 O.2       1 <0>         0.0000
     14 O3         -2.0286   -0.4560   -0.1792 O.3       1 <0>         0.0000
     15 S1          1.6769   -0.2382    0.5978 S.o2      1 <0>         0.0000
     16 H1         -0.4298    1.6011    1.7733 H         1 <0>         0.0000
     17 H2         -1.0390    0.2049    2.6506 H         1 <0>         0.0000
     18 H3         -3.1923    1.8082   -0.6653 H         1 <0>         0.0000
     19 H4         -2.5885    2.7299    0.7272 H         1 <0>         0.0000
     20 H5          0.4060    1.2559   -1.7325 H         1 <0>         0.0000
     21 H6         -1.2187    0.8916   -2.2895 H         1 <0>         0.0000
     22 H7         -0.3204   -2.3806   -0.9977 H         1 <0>         0.0000
     23 H8         -0.0248   -1.3075   -2.3822 H         1 <0>         0.0000
     24 H9         -3.0655    0.3777    1.4410 H         1 <0>         0.0000
     25 H10        -0.2078   -1.3417    1.2625 H         1 <0>         0.0000
     26 H11         1.7954   -3.0906   -2.8717 H         1 <0>         0.0000
     27 H12         3.3624   -2.2654   -2.6385 H         1 <0>         0.0000
     28 H13         3.1611   -3.9570   -2.1458 H         1 <0>         0.0000
     29 H14         3.0958   -2.4492   -0.1842 H         1 <0>         0.0000
     30 H15         1.5386   -3.2803   -0.4069 H         1 <0>         0.0000
     31 H16        -1.2909    2.9741   -1.3443 H         1 <0>         0.0000
@<TRIPOS>BOND
     1    1    5 1
     2    1    6 1
     3    1   16 1
     4    1   17 1
     5    2    5 1
     6    2   10 1
     7    2   18 1
     8    2   19 1
     9    3    7 1
    10    3   10 1
    11    3   20 1
    12    3   21 1
    13    4    7 1
    14    4   11 1
    15    4   22 1
    16    4   23 1
    17    5   14 1
    18    5   24 1
    19    6    7 1
    20    6   15 1
    21    6   25 1
    22    7   14 1
    23    8    9 1
    24    8   26 1
    25    8   27 1
    26    8   28 1
    27    9   11 1
    28    9   29 1
    29    9   30 1
    30   10   31 1
    31   11   15 1
    32   12   15 2
    33   13   15 2
