@<TRIPOS>MOLECULE
*****
   18    18     0     0     0
SMALL
NO_CHARGES

@<TRIPOS>ATOM
      1 C1          0.2202   -1.0465   -0.0412 C.3       1 <0>         0.0000
      2 C2         -0.1235    1.0465    0.1961 C.3       1 <0>         0.0000
      3 C3          1.1448    0.1709    0.1575 C.3       1 <0>         0.0000
      4 C4         -0.8935   -0.2197    0.6500 C.3       1 <0>         0.0000
      5 C5         -3.1492    0.4173    0.8213 C.3       1 <0>         0.0000
      6 N1          1.8698    0.4302   -1.0779 N.3       1 <0>         0.0000
      7 O1         -2.2178   -0.3814    0.1155 O.3       1 <0>         0.0000
      8 H1         -0.0173   -1.3153   -1.0780 H         1 <0>         0.0000
      9 H2          0.5246   -1.9517    0.4922 H         1 <0>         0.0000
     10 H3         -0.1012    1.8619    0.9251 H         1 <0>         0.0000
     11 H4         -0.4716    1.4462   -0.7646 H         1 <0>         0.0000
     12 H5          1.7390    0.1684    1.0707 H         1 <0>         0.0000
     13 H6         -0.8997   -0.3429    1.7405 H         1 <0>         0.0000
     14 H7         -4.1462    0.2769    0.3967 H         1 <0>         0.0000
     15 H8         -2.8564    1.4679    0.7513 H         1 <0>         0.0000
     16 H9         -3.1561    0.1121    1.8703 H         1 <0>         0.0000
     17 H10         2.3357   -0.3335   -1.5210 H         1 <0>         0.0000
     18 H11         2.0489    1.3796   -1.3297 H         1 <0>         0.0000
@<TRIPOS>BOND
     1    1    3 1
     2    1    4 1
     3    1    8 1
     4    1    9 1
     5    2    3 1
     6    2    4 1
     7    2   10 1
     8    2   11 1
     9    3    6 1
    10    3   12 1
    11    4    7 1
    12    4   13 1
    13    5    7 1
    14    5   14 1
    15    5   15 1
    16    5   16 1
    17    6   17 1
    18    6   18 1
