@<TRIPOS>MOLECULE
*****
   30    31     0     0     0
SMALL
NO_CHARGES

@<TRIPOS>ATOM
      1 C1         -0.1127   -3.4855    0.5553 C.ar      1 <0>         0.0000
      2 C2          3.3811   -3.0408   -0.6942 C.ar      1 <0>         0.0000
      3 C3         -0.5661   -2.1868    0.5584 C.ar      1 <0>         0.0000
      4 C4          3.8573   -4.3413   -0.6974 C.ar      1 <0>         0.0000
      5 C5          1.5613   -1.3942   -0.2579 C.ar      1 <0>         0.0000
      6 C6          1.7159   -5.1280    0.1345 C.ar      1 <0>         0.0000
      7 C7          2.0633   -2.7263   -0.2782 C.ar      1 <0>         0.0000
      8 C8          1.2152   -3.8030    0.1447 C.ar      1 <0>         0.0000
      9 C9          0.2751   -1.0997    0.1562 C.ar      1 <0>         0.0000
     10 C10         3.0096   -5.3976   -0.2762 C.ar      1 <0>         0.0000
     11 C11        -1.5624    0.4842   -0.6693 C.2       1 <0>         0.0000
     12 C12        -0.5109    0.7611    1.6449 C.3       1 <0>         0.0000
     13 C13         4.7175   -7.0339   -0.6720 C.3       1 <0>         0.0000
     14 C14        -0.2419    0.3148    0.1957 C.3       1 <0>         0.0000
     15 O1         -1.4334    1.1818   -1.7063 O.co2     1 <0>         0.0000
     16 O2         -2.5865   -0.0896   -0.2008 O.co2     1 <0>         0.0000
     17 O3          3.4018   -6.7273   -0.2472 O.3       1 <0>         0.0000
     18 H1         -0.7741   -4.2963    0.8572 H         1 <0>         0.0000
     19 H2          4.0337   -2.2334   -1.0210 H         1 <0>         0.0000
     20 H3         -1.5918   -1.9449    0.8217 H         1 <0>         0.0000
     21 H4          4.8730   -4.5369   -1.0244 H         1 <0>         0.0000
     22 H5          2.2170   -0.5869   -0.5813 H         1 <0>         0.0000
     23 H6          1.0819   -5.9534    0.4501 H         1 <0>         0.0000
     24 H7         -1.3145    0.1611    2.0808 H         1 <0>         0.0000
     25 H8          0.3867    0.6643    2.2715 H         1 <0>         0.0000
     26 H9         -0.8353    1.8084    1.6609 H         1 <0>         0.0000
     27 H10         4.8212   -8.1174   -0.5759 H         1 <0>         0.0000
     28 H11         5.4753   -6.5452   -0.0439 H         1 <0>         0.0000
     29 H12         4.8863   -6.7499   -1.7199 H         1 <0>         0.0000
     30 H13         0.5166    0.9695   -0.2446 H         1 <0>         0.0000
@<TRIPOS>BOND
     1    1    3 ar
     2    1    8 ar
     3    1   18 1
     4    2    4 ar
     5    2    7 ar
     6    2   19 1
     7    3    9 ar
     8    3   20 1
     9    4   10 ar
    10    4   21 1
    11    5    7 ar
    12    5    9 ar
    13    5   22 1
    14    6    8 ar
    15    6   10 ar
    16    6   23 1
    17    7    8 ar
    18    9   14 1
    19   10   17 1
    20   11   14 1
    21   11   15 1
    22   11   16 2
    23   12   14 1
    24   12   24 1
    25   12   25 1
    26   12   26 1
    27   13   17 1
    28   13   27 1
    29   13   28 1
    30   13   29 1
    31   14   30 1
