@<TRIPOS>MOLECULE
*****
   31    33     0     0     0
SMALL
NO_CHARGES

@<TRIPOS>ATOM
      1 C1          3.0193    5.5165    3.2955 C.ar      1 <0>         0.0000
      2 C2          3.7475    4.9377    2.2489 C.ar      1 <0>         0.0000
      3 C3          1.7047    5.1041    3.5374 C.ar      1 <0>         0.0000
      4 C4          3.1688    3.9502    1.4528 C.ar      1 <0>         0.0000
      5 C5          1.1063    4.1429    2.7228 C.ar      1 <0>         0.0000
      6 C6         -4.5863    3.3629   -1.0240 C.2       1 <0>         0.0000
      7 C7          1.8342    3.5775    1.6640 C.ar      1 <0>         0.0000
      8 C8         -0.6546    3.6423    0.2500 C.2       1 <0>         0.0000
      9 C9         -3.9165    2.1914   -0.8248 C.2       1 <0>         0.0000
     10 C10        -1.9537    3.3910   -0.1733 C.2       1 <0>         0.0000
     11 C11        -3.9711    4.6680   -0.8071 C.2       1 <0>         0.0000
     12 C12        -0.4913    5.1113    0.2001 C.2       1 <0>         0.0000
     13 C13        -4.5067    0.8302   -1.0478 C.3       1 <0>         0.0000
     14 N1          1.3189    2.4928    0.8990 N.2       1 <0>         0.0000
     15 N2          0.1761    2.5223    0.3623 N.2       1 <0>         0.0000
     16 N3         -2.6061    2.2154   -0.3837 N.pl3     1 <0>         0.0000
     17 N4         -1.8132    5.6114   -0.0281 N.am      1 <0>         0.0000
     18 N5         -2.6400    4.5488   -0.3724 N.am      1 <0>         0.0000
     19 O1         -4.4720    5.7723   -0.9823 O.2       1 <0>         0.0000
     20 O2          0.4821    5.8411    0.2885 O.2       1 <0>         0.0000
     21 H1          3.4772    6.2749    3.9249 H         1 <0>         0.0000
     22 H2          4.7728    5.2473    2.0634 H         1 <0>         0.0000
     23 H3          1.1410    5.5366    4.3600 H         1 <0>         0.0000
     24 H4          3.7283    3.4719    0.6538 H         1 <0>         0.0000
     25 H5          0.0877    3.8182    2.9150 H         1 <0>         0.0000
     26 H6         -5.6141    3.3615   -1.3638 H         1 <0>         0.0000
     27 H7         -3.9350    0.2792   -1.8028 H         1 <0>         0.0000
     28 H8         -5.5392    0.9111   -1.3884 H         1 <0>         0.0000
     29 H9         -4.4913    0.2448   -0.1218 H         1 <0>         0.0000
     30 H10        -2.0512    1.3725   -0.2651 H         1 <0>         0.0000
     31 H11        -1.9623    6.4578   -0.5714 H         1 <0>         0.0000
@<TRIPOS>BOND
     1    1    3 ar
     2    1    2 ar
     3    1   21 1
     4    2    4 ar
     5    2   22 1
     6    3    5 ar
     7    3   23 1
     8    4    7 ar
     9    4   24 1
    10    5    7 ar
    11    5   25 1
    12    6    9 2
    13    6   11 1
    14    6   26 1
    15    7   14 1
    16    8   10 2
    17    8   12 1
    18    8   15 1
    19    9   13 1
    20    9   16 1
    21   10   16 1
    22   10   18 1
    23   11   18 am
    24   11   19 2
    25   12   17 am
    26   12   20 2
    27   13   27 1
    28   13   28 1
    29   13   29 1
    30   14   15 2
    31   16   30 1
    32   17   18 1
    33   17   31 1
