@<TRIPOS>MOLECULE
*****
   15    14     0     0     0
SMALL
NO_CHARGES

@<TRIPOS>ATOM
      1 C1          0.9358    0.9359   -1.0398 C.2       1 <0>         0.0000
      2 C2         -0.1723    0.2190   -0.8240 C.2       1 <0>         0.0000
      3 C3         -0.4467   -0.5374    0.4501 C.2       1 <0>         0.0000
      4 O1         -1.5640   -0.6265    0.9262 O.2       1 <0>         0.0000
      5 O2         -3.4074    0.7837   -2.8505 O.2       1 <0>         0.0000
      6 O3          0.6070   -1.1025    1.0706 O.3       1 <0>         0.0000
      7 O4         -1.7112    2.6237   -2.1498 O.3       1 <0>         0.0000
      8 O5         -2.8652    1.4288   -0.3242 O.3       1 <0>         0.0000
      9 O6         -1.1939    0.1317   -1.7433 O.3       1 <0>         0.0000
     10 P1         -2.4327    1.2127   -1.8368 P.3       1 <0>         0.0000
     11 H1          1.0434    1.5231   -1.9453 H         1 <0>         0.0000
     12 H2          1.7285    0.9919   -0.3003 H         1 <0>         0.0000
     13 H3          1.3862   -1.0814    0.4879 H         1 <0>         0.0000
     14 H4         -1.9492    2.9281   -3.0425 H         1 <0>         0.0000
     15 H5         -2.6965    0.6386    0.2461 H         1 <0>         0.0000
@<TRIPOS>BOND
     1    1    2 2
     2    1   11 1
     3    1   12 1
     4    2    3 1
     5    2    9 1
     6    3    4 2
     7    3    6 1
     8    5   10 2
     9    6   13 1
    10    7   10 1
    11    7   14 1
    12    8   10 1
    13    8   15 1
    14    9   10 1
