@<TRIPOS>MOLECULE
*****
   15    14     0     0     0
SMALL
NO_CHARGES

@<TRIPOS>ATOM
      1 C1          0.8768    1.1625   -0.5342 C.2       1 <0>         0.0000
      2 C2         -0.2846    0.5078   -0.4094 C.2       1 <0>         0.0000
      3 C3         -0.5805   -0.4897    0.6761 C.2       1 <0>         0.0000
      4 O1         -1.7225   -0.7134    1.0489 O.2       1 <0>         0.0000
      5 O2         -3.1792    2.3743   -1.9657 O.2       1 <0>         0.0000
      6 O3          0.4518   -1.1264    1.2554 O.3       1 <0>         0.0000
      7 O4         -2.5326    2.0842    0.5250 O.3       1 <0>         0.0000
      8 O5         -3.7499    0.1781   -0.7214 O.3       1 <0>         0.0000
      9 O6         -1.3136    0.7218   -1.2872 O.3       1 <0>         0.0000
     10 P1         -2.7709    1.4279   -0.9277 P.3       1 <0>         0.0000
     11 H1          0.9965    1.9106   -1.3108 H         1 <0>         0.0000
     12 H2          1.7125    0.9969    0.1383 H         1 <0>         0.0000
     13 H3          1.2741   -0.9595    0.7629 H         1 <0>         0.0000
     14 H4         -2.6259    1.4521    1.2603 H         1 <0>         0.0000
     15 H5         -3.3437   -0.5174   -0.1647 H         1 <0>         0.0000
@<TRIPOS>BOND
     1    1    2 2
     2    1   11 1
     3    1   12 1
     4    2    3 1
     5    2    9 1
     6    3    4 2
     7    3    6 1
     8    5   10 2
     9    6   13 1
    10    7   10 1
    11    7   14 1
    12    8   10 1
    13    8   15 1
    14    9   10 1
