@<TRIPOS>MOLECULE
*****
   15    14     0     0     0
SMALL
NO_CHARGES

@<TRIPOS>ATOM
      1 C1          1.0285    1.3449    0.2332 C.2       1 <0>         0.0000
      2 C2          0.1583    0.4530   -0.2366 C.2       1 <0>         0.0000
      3 C3         -0.1532   -0.8345    0.5026 C.2       1 <0>         0.0000
      4 O1         -0.0218   -0.8900    1.7072 O.2       1 <0>         0.0000
      5 O2          0.0368   -1.2949   -2.8309 O.2       1 <0>         0.0000
      6 O3         -0.5768   -1.8859   -0.2156 O.3       1 <0>         0.0000
      7 O4          1.0901    0.9967   -3.3574 O.3       1 <0>         0.0000
      8 O5         -1.3467    0.7571   -3.7705 O.3       1 <0>         0.0000
      9 O6         -0.5903    0.7486   -1.3993 O.3       1 <0>         0.0000
     10 P1         -0.1753    0.1698   -2.8485 P.3       1 <0>         0.0000
     11 H1          1.2294    2.2712   -0.2948 H         1 <0>         0.0000
     12 H2          1.5379    1.1437    1.1685 H         1 <0>         0.0000
     13 H3         -0.3948   -1.7872   -1.1832 H         1 <0>         0.0000
     14 H4          0.8996    1.9182   -3.6060 H         1 <0>         0.0000
     15 H5         -2.1757    0.2484   -3.7280 H         1 <0>         0.0000
@<TRIPOS>BOND
     1    1    2 2
     2    1   11 1
     3    1   12 1
     4    2    3 1
     5    2    9 1
     6    3    4 2
     7    3    6 1
     8    5   10 2
     9    6   13 1
    10    7   10 1
    11    7   14 1
    12    8   10 1
    13    8   15 1
    14    9   10 1
