@<TRIPOS>MOLECULE
*****
   35    36     0     0     0
SMALL
NO_CHARGES

@<TRIPOS>ATOM
      1 C1         -1.5199    2.3791   -3.5632 C.2       1 <0>         0.0000
      2 C2         -0.1740    2.6480   -3.2470 C.2       1 <0>         0.0000
      3 C3          0.0604   -1.0785   -1.2077 C.2       1 <0>         0.0000
      4 C4         -1.0184    0.2343    2.0515 C.3       1 <0>         0.0000
      5 C5         -0.3250   -0.8153    1.1696 C.3       1 <0>         0.0000
      6 C6         -2.1044   -0.0956   -0.3807 C.3       1 <0>         0.0000
      7 C7         -2.1313    1.3748    0.0852 C.3       1 <0>         0.0000
      8 C8         -1.1937    1.5747    1.3141 C.3       1 <0>         0.0000
      9 C9         -3.5921    1.7877    0.2939 C.3       1 <0>         0.0000
     10 C10        -1.6659    2.6686    2.2761 C.3       1 <0>         0.0000
     11 C11        -0.3400   -0.8063   -2.6697 C.3       1 <0>         0.0000
     12 N1         -1.7450    1.0702   -3.3887 N.2       1 <0>         0.0000
     13 N2          0.4149    1.5034   -2.8828 N.2       1 <0>         0.0000
     14 N3         -0.5596    0.5996   -2.9818 N.pl3     1 <0>         0.0000
     15 N4         -0.7948   -0.7104   -0.2167 N.am      1 <0>         0.0000
     16 O1          1.1325   -1.6434   -0.9840 O.2       1 <0>         0.0000
     17 O2          0.0673    1.9780    0.7363 O.3       1 <0>         0.0000
     18 H1         -2.3088    3.0388   -3.8981 H         1 <0>         0.0000
     19 H2          0.3785    3.5774   -3.2613 H         1 <0>         0.0000
     20 H3         -2.0017   -0.1180    2.3845 H         1 <0>         0.0000
     21 H4         -0.4222    0.3759    2.9611 H         1 <0>         0.0000
     22 H5          0.7548   -0.6655    1.1573 H         1 <0>         0.0000
     23 H6         -0.5065   -1.8261    1.5573 H         1 <0>         0.0000
     24 H7         -2.8233   -0.6773    0.2132 H         1 <0>         0.0000
     25 H8         -2.4377   -0.1610   -1.4140 H         1 <0>         0.0000
     26 H9         -1.7041    1.9949   -0.7076 H         1 <0>         0.0000
     27 H10        -4.0565    1.2384    1.1217 H         1 <0>         0.0000
     28 H11        -4.1704    1.5679   -0.6103 H         1 <0>         0.0000
     29 H12        -3.6946    2.8563    0.4968 H         1 <0>         0.0000
     30 H13        -1.7831    3.6194    1.7484 H         1 <0>         0.0000
     31 H14        -0.9205    2.8136    3.0675 H         1 <0>         0.0000
     32 H15        -2.6142    2.4159    2.7591 H         1 <0>         0.0000
     33 H16        -1.2531   -1.3339   -2.9489 H         1 <0>         0.0000
     34 H17         0.4874   -1.1750   -3.2757 H         1 <0>         0.0000
     35 H18         0.7175    2.0616    1.4532 H         1 <0>         0.0000
@<TRIPOS>BOND
     1    1    2 1
     2    1   12 2
     3    1   18 1
     4    2   13 2
     5    2   19 1
     6    3   11 1
     7    3   15 am
     8    3   16 2
     9    4    5 1
    10    4    8 1
    11    4   20 1
    12    4   21 1
    13    5   15 1
    14    5   22 1
    15    5   23 1
    16    6    7 1
    17    6   15 1
    18    6   24 1
    19    6   25 1
    20    7    8 1
    21    7    9 1
    22    7   26 1
    23    8   10 1
    24    8   17 1
    25    9   27 1
    26    9   28 1
    27    9   29 1
    28   10   30 1
    29   10   31 1
    30   10   32 1
    31   11   14 1
    32   11   33 1
    33   11   34 1
    34   12   14 1
    35   13   14 1
    36   17   35 1
