@<TRIPOS>MOLECULE
*****
   15    14     0     0     0
SMALL
NO_CHARGES

@<TRIPOS>ATOM
      1 C1          0.7931    1.5094    0.3044 C.2       1 <0>         0.0000
      2 C2         -0.0320    0.5574   -0.1275 C.2       1 <0>         0.0000
      3 C3          0.0825   -0.8803    0.3427 C.2       1 <0>         0.0000
      4 O1          1.1518   -1.3131    0.7178 O.2       1 <0>         0.0000
      5 O2         -3.1255    0.1159    0.0678 O.2       1 <0>         0.0000
      6 O3         -1.0237   -1.6397    0.3217 O.3       1 <0>         0.0000
      7 O4         -3.1344    1.3695   -2.2637 O.3       1 <0>         0.0000
      8 O5         -2.6093    2.6273   -0.1880 O.3       1 <0>         0.0000
      9 O6         -0.9755    0.8535   -1.1380 O.3       1 <0>         0.0000
     10 P1         -2.5246    1.1556   -0.7973 P.3       1 <0>         0.0000
     11 H1          0.7140    2.5309   -0.0528 H         1 <0>         0.0000
     12 H2          1.5661    1.2537    1.0198 H         1 <0>         0.0000
     13 H3         -1.8534   -1.1063    0.2442 H         1 <0>         0.0000
     14 H4         -3.3282    0.5403   -2.7354 H         1 <0>         0.0000
     15 H5         -2.4492    3.3416   -0.8294 H         1 <0>         0.0000
@<TRIPOS>BOND
     1    1    2 2
     2    1   11 1
     3    1   12 1
     4    2    3 1
     5    2    9 1
     6    3    4 2
     7    3    6 1
     8    5   10 2
     9    6   13 1
    10    7   10 1
    11    7   14 1
    12    8   10 1
    13    8   15 1
    14    9   10 1
