@<TRIPOS>MOLECULE
*****
   37    39     0     0     0
SMALL
NO_CHARGES

@<TRIPOS>ATOM
      1 C1          0.5487   -4.8261    2.8881 C.2       1 <0>         0.0000
      2 C2          1.6953   -4.0729    2.7277 C.2       1 <0>         0.0000
      3 C3         -0.9997    6.0694    0.0066 C.ar      1 <0>         0.0000
      4 C4         -0.8124   -2.8953    2.2527 C.2       1 <0>         0.0000
      5 C5         -0.7102   -4.2012    2.6650 C.2       1 <0>         0.0000
      6 C6          0.5499   -0.8140    1.7907 C.2       1 <0>         0.0000
      7 C7          0.1507    5.3162    0.2700 C.ar      1 <0>         0.0000
      8 C8         -2.2379    5.4167    0.0788 C.ar      1 <0>         0.0000
      9 C9          1.9477   -0.6499    1.8041 C.2       1 <0>         0.0000
     10 C10         1.6148   -2.7185    2.3374 C.2       1 <0>         0.0000
     11 C11        -1.1484    3.4895    0.6228 C.ar      1 <0>         0.0000
     12 C12        -0.5151    0.1099    1.4971 C.2       1 <0>         0.0000
     13 C13         1.5298    5.9173    0.2223 C.3       1 <0>         0.0000
     14 C14        -3.5372    6.1301   -0.1843 C.3       1 <0>         0.0000
     15 C15         2.6998    0.6051    1.5015 C.3       1 <0>         0.0000
     16 N1          2.5753   -1.8086    2.1464 N.2       1 <0>         0.0000
     17 N2          0.0817    4.0124    0.5815 N.ar      1 <0>         0.0000
     18 N3         -2.3173    4.1164    0.3895 N.ar      1 <0>         0.0000
     19 N4         -0.2540    1.3426    1.2047 N.2       1 <0>         0.0000
     20 N5          0.3387   -2.1493    2.1276 N.pl3     1 <0>         0.0000
     21 N6         -1.2990    2.1514    0.9377 N.pl3     1 <0>         0.0000
     22 I1         -2.4840   -5.5504    2.2001 I         1 <0>         0.0000
     23 H1          0.6040   -5.8648    3.1939 H         1 <0>         0.0000
     24 H2          2.6802   -4.4948    2.8994 H         1 <0>         0.0000
     25 H3         -0.9356    7.1228   -0.2450 H         1 <0>         0.0000
     26 H4         -1.7524   -2.4103    2.0246 H         1 <0>         0.0000
     27 H5         -1.5490   -0.2605    1.5268 H         1 <0>         0.0000
     28 H6          2.0173    5.8049    1.1959 H         1 <0>         0.0000
     29 H7          2.1438    5.3806   -0.5077 H         1 <0>         0.0000
     30 H8          1.5036    6.9769   -0.0430 H         1 <0>         0.0000
     31 H9         -4.0740    5.6403   -1.0028 H         1 <0>         0.0000
     32 H10        -4.1791    6.0765    0.7008 H         1 <0>         0.0000
     33 H11        -3.3777    7.1796   -0.4426 H         1 <0>         0.0000
     34 H12         2.3924    1.4170    2.1679 H         1 <0>         0.0000
     35 H13         3.7706    0.4214    1.6092 H         1 <0>         0.0000
     36 H14         2.4858    0.9565    0.4871 H         1 <0>         0.0000
     37 H15        -2.2606    1.8118    0.9598 H         1 <0>         0.0000
@<TRIPOS>BOND
     1    1    2 2
     2    1    5 1
     3    1   23 1
     4    2   10 1
     5    2   24 1
     6    3    8 ar
     7    3    7 ar
     8    3   25 1
     9    4    5 2
    10    4   20 1
    11    4   26 1
    12    5   22 1
    13    6    9 2
    14    6   12 1
    15    6   20 1
    16    7   13 1
    17    7   17 ar
    18    8   14 1
    19    8   18 ar
    20    9   15 1
    21    9   16 1
    22   10   16 2
    23   10   20 1
    24   11   18 ar
    25   11   17 ar
    26   11   21 1
    27   12   19 2
    28   12   27 1
    29   13   28 1
    30   13   29 1
    31   13   30 1
    32   14   31 1
    33   14   32 1
    34   14   33 1
    35   15   34 1
    36   15   35 1
    37   15   36 1
    38   19   21 1
    39   21   37 1
