@<TRIPOS>MOLECULE
*****
   31    32     0     0     0
SMALL
NO_CHARGES

@<TRIPOS>ATOM
      1 C1          5.5049   -1.0853   -0.6004 C.ar      1 <0>         0.0000
      2 C2          4.2131   -1.0293   -0.0712 C.ar      1 <0>         0.0000
      3 C3          5.9133   -2.1837   -1.3633 C.ar      1 <0>         0.0000
      4 C4          3.7035   -3.1727   -1.0618 C.ar      1 <0>         0.0000
      5 C5          3.3039   -2.0710   -0.2970 C.ar      1 <0>         0.0000
      6 C6          4.9944   -3.2055   -1.5764 C.ar      1 <0>         0.0000
      7 C7          0.9356   -1.2911   -0.7070 C.2       1 <0>         0.0000
      8 C8         -1.2048   -0.2387   -1.1230 C.3       1 <0>         0.0000
      9 C9         -0.7623   -1.2251    1.1414 C.3       1 <0>         0.0000
     10 C10        -0.7648    1.2024   -1.4161 C.3       1 <0>         0.0000
     11 C11        -0.5364   -0.0521    2.1031 C.3       1 <0>         0.0000
     12 C12         1.9032   -1.9935    0.2581 C.3       1 <0>         0.0000
     13 N1         -0.3177   -0.9894   -0.2317 N.am      1 <0>         0.0000
     14 O1          1.2570   -1.0228   -1.8631 O.2       1 <0>         0.0000
     15 F1          5.3722   -4.2828   -2.3158 F         1 <0>         0.0000
     16 S1         -0.1363    2.1310    0.0429 S.3       1 <0>         0.0000
     17 S2         -1.3771    1.5060    1.6040 S.3       1 <0>         0.0000
     18 H1          6.2011   -0.2709   -0.4196 H         1 <0>         0.0000
     19 H2          3.9055   -0.1651    0.5125 H         1 <0>         0.0000
     20 H3          6.9113   -2.2547   -1.7846 H         1 <0>         0.0000
     21 H4          3.0245   -3.9944   -1.2710 H         1 <0>         0.0000
     22 H5         -2.1924   -0.2266   -0.6601 H         1 <0>         0.0000
     23 H6         -1.2795   -0.7640   -2.0802 H         1 <0>         0.0000
     24 H7         -0.2612   -2.1107    1.5395 H         1 <0>         0.0000
     25 H8         -1.8300   -1.4631    1.1108 H         1 <0>         0.0000
     26 H9          0.0786    1.2069   -2.1105 H         1 <0>         0.0000
     27 H10        -1.6017    1.7445   -1.8649 H         1 <0>         0.0000
     28 H11        -0.9489   -0.3056    3.0868 H         1 <0>         0.0000
     29 H12         0.5275    0.1664    2.2237 H         1 <0>         0.0000
     30 H13         1.5189   -2.9999    0.4618 H         1 <0>         0.0000
     31 H14         1.9151   -1.4644    1.2154 H         1 <0>         0.0000
@<TRIPOS>BOND
     1    1    2 ar
     2    1    3 ar
     3    1   18 1
     4    2    5 ar
     5    2   19 1
     6    3    6 ar
     7    3   20 1
     8    4    5 ar
     9    4    6 ar
    10    4   21 1
    11    5   12 1
    12    6   15 1
    13    7   12 1
    14    7   13 am
    15    7   14 2
    16    8   10 1
    17    8   13 1
    18    8   22 1
    19    8   23 1
    20    9   11 1
    21    9   13 1
    22    9   24 1
    23    9   25 1
    24   10   16 1
    25   10   26 1
    26   10   27 1
    27   11   17 1
    28   11   28 1
    29   11   29 1
    30   12   30 1
    31   12   31 1
    32   16   17 1
