@<TRIPOS>MOLECULE
*****
   32    34     0     0     0
SMALL
NO_CHARGES

@<TRIPOS>ATOM
      1 C1         -1.0251   -2.3214    4.7439 C.ar      1 <0>         0.0000
      2 C2         -1.1378   -3.0217    3.5221 C.ar      1 <0>         0.0000
      3 C3         -1.5567   -1.0434    4.8943 C.ar      1 <0>         0.0000
      4 C4         -1.7854   -2.4558    2.4257 C.ar      1 <0>         0.0000
      5 C5         -3.3357    0.8263    2.2889 C.2       1 <0>         0.0000
      6 C6         -2.2165   -0.4460    3.8043 C.ar      1 <0>         0.0000
      7 C7         -2.8732    0.8273    3.5948 C.2       1 <0>         0.0000
      8 C8         -2.3172   -1.1713    2.5838 C.ar      1 <0>         0.0000
      9 C9         -5.5007    7.4914    4.8043 C.ar      1 <0>         0.0000
     10 C10        -4.8871    7.1044    6.0249 C.ar      1 <0>         0.0000
     11 C11        -4.3259    5.1409    5.0764 C.ar      1 <0>         0.0000
     12 C12        -3.0189    1.8952    4.5631 C.2       1 <0>         0.0000
     13 C13        -6.1738    8.8220    4.6283 C.3       1 <0>         0.0000
     14 N1         -5.4728    6.6371    3.7864 N.ar      1 <0>         0.0000
     15 N2         -4.2989    5.9385    6.1747 N.ar      1 <0>         0.0000
     16 N3         -4.8852    5.4399    3.8954 N.ar      1 <0>         0.0000
     17 N4         -3.6276    2.9936    4.2712 N.2       1 <0>         0.0000
     18 N5         -3.0039   -0.3664    1.6861 N.pl3     1 <0>         0.0000
     19 N6         -3.7073    3.9290    5.2537 N.pl3     1 <0>         0.0000
     20 O1         -4.9087    7.9639    7.0671 O.3       1 <0>         0.0000
     21 H1         -0.5136   -2.7922    5.5792 H         1 <0>         0.0000
     22 H2         -0.7125   -4.0178    3.4357 H         1 <0>         0.0000
     23 H3         -1.4598   -0.5208    5.8427 H         1 <0>         0.0000
     24 H4         -1.8720   -2.9949    1.4855 H         1 <0>         0.0000
     25 H5         -3.8767    1.5999    1.7612 H         1 <0>         0.0000
     26 H6         -2.5865    1.7274    5.5600 H         1 <0>         0.0000
     27 H7         -5.4734    9.6458    4.8033 H         1 <0>         0.0000
     28 H8         -6.5637    8.8926    3.6113 H         1 <0>         0.0000
     29 H9         -6.9984    8.9451    5.3389 H         1 <0>         0.0000
     30 H10        -3.2272   -0.6133    0.7323 H         1 <0>         0.0000
     31 H11        -3.3013    3.7639    6.1745 H         1 <0>         0.0000
     32 H12        -4.4437    7.5241    7.8040 H         1 <0>         0.0000
@<TRIPOS>BOND
     1    1    2 ar
     2    1    3 ar
     3    1   21 1
     4    2    4 ar
     5    2   22 1
     6    3    6 ar
     7    3   23 1
     8    4    8 ar
     9    4   24 1
    10    5    7 2
    11    5   18 1
    12    5   25 1
    13    6    7 1
    14    6    8 ar
    15    7   12 1
    16    8   18 1
    17    9   10 ar
    18    9   13 1
    19    9   14 ar
    20   10   15 ar
    21   10   20 1
    22   11   15 ar
    23   11   16 ar
    24   11   19 1
    25   12   17 2
    26   12   26 1
    27   13   27 1
    28   13   28 1
    29   13   29 1
    30   14   16 ar
    31   17   19 1
    32   18   30 1
    33   19   31 1
    34   20   32 1
