@<TRIPOS>MOLECULE
*****
   18    18     0     0     0
SMALL
NO_CHARGES

@<TRIPOS>ATOM
      1 C1          0.2981   -0.5412   -1.2387 C.2       1 <0>         0.0000
      2 C2         -0.1497    0.0992    0.7808 C.2       1 <0>         0.0000
      3 C3          0.6189    0.9715   -1.1520 C.3       1 <0>         0.0000
      4 C4          0.6269    2.4885    0.9134 C.3       1 <0>         0.0000
      5 N1         -0.1557   -0.9650    0.0168 N.2       1 <0>         0.0000
      6 N2          0.1953    1.2921    0.2107 N.pl3     1 <0>         0.0000
      7 N3         -0.4859    0.0273    2.1180 N.pl3     1 <0>         0.0000
      8 O1          0.4349   -1.2173   -2.2383 O.2       1 <0>         0.0000
      9 O2         -2.3409   -1.9664    2.3444 O.2       1 <0>         0.0000
     10 P1         -1.0827   -1.3932    2.8375 P.3       1 <0>         0.0000
     11 Cl1        -1.1794   -0.6709    4.7700 Cl        1 <0>         0.0000
     12 Cl2         0.4913   -2.6828    2.8888 Cl        1 <0>         0.0000
     13 H1          1.6915    1.1434   -1.2968 H         1 <0>         0.0000
     14 H2          0.0579    1.5397   -1.8989 H         1 <0>         0.0000
     15 H3          1.6357    2.3878    1.3370 H         1 <0>         0.0000
     16 H4         -0.0757    2.7448    1.7125 H         1 <0>         0.0000
     17 H5          0.6255    3.3258    0.2129 H         1 <0>         0.0000
     18 H6         -0.4156    0.8559    2.6966 H         1 <0>         0.0000
@<TRIPOS>BOND
     1    1    3 1
     2    1    5 1
     3    1    8 2
     4    2    5 2
     5    2    6 1
     6    2    7 1
     7    3    6 1
     8    3   13 1
     9    3   14 1
    10    4    6 1
    11    4   15 1
    12    4   16 1
    13    4   17 1
    14    7   10 1
    15    7   18 1
    16    9   10 2
    17   10   11 1
    18   10   12 1
