@<TRIPOS>MOLECULE
*****
   31    32     0     0     0
SMALL
NO_CHARGES

@<TRIPOS>ATOM
      1 C1          1.7910   -5.2447    1.4059 C.ar      1 <0>         0.0000
      2 C2          2.0082   -3.8642    1.3441 C.ar      1 <0>         0.0000
      3 C3          1.5107   -5.9716    0.2464 C.ar      1 <0>         0.0000
      4 C4          1.6758   -3.9088   -1.0514 C.ar      1 <0>         0.0000
      5 C5          1.9526   -3.1861    0.1186 C.ar      1 <0>         0.0000
      6 C6          1.4601   -5.2781   -0.9600 C.ar      1 <0>         0.0000
      7 C7          1.2148   -0.9725   -0.8745 C.2       1 <0>         0.0000
      8 C8         -0.9598    0.0028   -1.2930 C.3       1 <0>         0.0000
      9 C9         -0.5161   -1.0633    0.9350 C.3       1 <0>         0.0000
     10 C10        -0.5955    1.4776   -1.5109 C.3       1 <0>         0.0000
     11 C11        -0.3756    0.0735    1.9525 C.3       1 <0>         0.0000
     12 C12         2.2024   -1.6905    0.0443 C.3       1 <0>         0.0000
     13 N1         -0.0518   -0.7343   -0.4123 N.am      1 <0>         0.0000
     14 O1          1.5494   -0.6493   -2.0176 O.2       1 <0>         0.0000
     15 F1          1.1890   -5.9704   -2.0965 F         1 <0>         0.0000
     16 S1         -0.0576    2.3733    0.0044 S.3       1 <0>         0.0000
     17 S2         -1.2921    1.6060    1.5059 S.3       1 <0>         0.0000
     18 H1          1.8389   -5.7584    2.3622 H         1 <0>         0.0000
     19 H2          2.2271   -3.3121    2.2552 H         1 <0>         0.0000
     20 H3          1.3356   -7.0427    0.2645 H         1 <0>         0.0000
     21 H4          1.6281   -3.4165   -2.0185 H         1 <0>         0.0000
     22 H5         -1.9565   -0.0612   -0.8552 H         1 <0>         0.0000
     23 H6         -0.9813   -0.4840   -2.2730 H         1 <0>         0.0000
     24 H7          0.0201   -1.9423    1.2978 H         1 <0>         0.0000
     25 H8         -1.5681   -1.3558    0.8630 H         1 <0>         0.0000
     26 H9          0.2633    1.5604   -2.1813 H         1 <0>         0.0000
     27 H10        -1.4504    1.9915   -1.9590 H         1 <0>         0.0000
     28 H11        -0.7940   -0.2473    2.9138 H         1 <0>         0.0000
     29 H12         0.6722    0.3436    2.1060 H         1 <0>         0.0000
     30 H13         2.1997   -1.2608    1.0496 H         1 <0>         0.0000
     31 H14         3.1867   -1.4994   -0.3904 H         1 <0>         0.0000
@<TRIPOS>BOND
     1    1    2 ar
     2    1    3 ar
     3    1   18 1
     4    2    5 ar
     5    2   19 1
     6    3    6 ar
     7    3   20 1
     8    4    5 ar
     9    4    6 ar
    10    4   21 1
    11    5   12 1
    12    6   15 1
    13    7   12 1
    14    7   13 am
    15    7   14 2
    16    8   10 1
    17    8   13 1
    18    8   22 1
    19    8   23 1
    20    9   11 1
    21    9   13 1
    22    9   24 1
    23    9   25 1
    24   10   16 1
    25   10   26 1
    26   10   27 1
    27   11   17 1
    28   11   28 1
    29   11   29 1
    30   12   30 1
    31   12   31 1
    32   16   17 1
