@<TRIPOS>MOLECULE
*****
   31    32     0     0     0
SMALL
NO_CHARGES

@<TRIPOS>ATOM
      1 C1         -0.4820    1.5764    3.5977 C.1       1 <0>         0.0000
      2 C2          0.1307    0.7409    2.9661 C.1       1 <0>         0.0000
      3 C3          1.1789   -1.5561    0.2148 C.ar      1 <0>         0.0000
      4 C4          7.3131   -5.4429    4.0247 C.ar      1 <0>         0.0000
      5 C5          0.4562   -0.5928    0.9161 C.ar      1 <0>         0.0000
      6 C6          6.2729   -5.0707    3.1722 C.ar      1 <0>         0.0000
      7 C7          7.8571   -4.5177    4.9194 C.ar      1 <0>         0.0000
      8 C8          2.2920   -2.1894    0.7742 C.ar      1 <0>         0.0000
      9 C9          1.9715   -0.8754    2.7904 C.ar      1 <0>         0.0000
     10 C10         6.3228   -2.8430    4.1236 C.ar      1 <0>         0.0000
     11 C11         0.8545   -0.2458    2.2209 C.ar      1 <0>         0.0000
     12 C12         5.7602   -3.7687    3.2290 C.ar      1 <0>         0.0000
     13 C13         7.3765   -3.2000    4.9735 C.ar      1 <0>         0.0000
     14 C14         2.6933   -1.8438    2.0766 C.ar      1 <0>         0.0000
     15 C15         4.6385   -3.4278    2.2891 C.2       1 <0>         0.0000
     16 C16         8.0039   -2.1904    5.9073 C.3       1 <0>         0.0000
     17 N1          3.8085   -2.4144    2.7246 N.am      1 <0>         0.0000
     18 O1          4.4817   -4.0278    1.2272 O.2       1 <0>         0.0000
     19 H1         -1.0252    2.3131    4.1507 H         1 <0>         0.0000
     20 H2          0.8734   -1.8275   -0.7922 H         1 <0>         0.0000
     21 H3          7.7031   -6.4569    3.9917 H         1 <0>         0.0000
     22 H4         -0.4077   -0.1077    0.4728 H         1 <0>         0.0000
     23 H5          5.8466   -5.7703    2.4605 H         1 <0>         0.0000
     24 H6          8.6707   -4.8169    5.5771 H         1 <0>         0.0000
     25 H7          2.8423   -2.9408    0.2260 H         1 <0>         0.0000
     26 H8          2.2730   -0.6006    3.7986 H         1 <0>         0.0000
     27 H9          5.9764   -1.8114    4.1372 H         1 <0>         0.0000
     28 H10         9.0138   -1.9237    5.5753 H         1 <0>         0.0000
     29 H11         7.4169   -1.2691    5.9565 H         1 <0>         0.0000
     30 H12         8.0900   -2.5900    6.9231 H         1 <0>         0.0000
     31 H13         3.9636   -2.0901    3.6698 H         1 <0>         0.0000
@<TRIPOS>BOND
     1    1    2 3
     2    1   19 1
     3    2   11 1
     4    3    5 ar
     5    3    8 ar
     6    3   20 1
     7    4    6 ar
     8    4    7 ar
     9    4   21 1
    10    5   11 ar
    11    5   22 1
    12    6   12 ar
    13    6   23 1
    14    7   13 ar
    15    7   24 1
    16    8   14 ar
    17    8   25 1
    18    9   11 ar
    19    9   14 ar
    20    9   26 1
    21   10   12 ar
    22   10   13 ar
    23   10   27 1
    24   12   15 1
    25   13   16 1
    26   14   17 1
    27   15   17 am
    28   15   18 2
    29   16   28 1
    30   16   29 1
    31   16   30 1
    32   17   31 1
