@<TRIPOS>MOLECULE
*****
   32    34     0     0     0
SMALL
NO_CHARGES

@<TRIPOS>ATOM
      1 C1         -1.1013   -2.3499    4.7258 C.ar      1 <0>         0.0000
      2 C2         -0.9901   -2.8784    3.4203 C.ar      1 <0>         0.0000
      3 C3         -2.0978   -1.4332    5.0501 C.ar      1 <0>         0.0000
      4 C4         -1.8750   -2.4992    2.4129 C.ar      1 <0>         0.0000
      5 C5         -4.6335   -0.1570    2.7283 C.2       1 <0>         0.0000
      6 C6         -3.0061   -1.0312    4.0533 C.ar      1 <0>         0.0000
      7 C7         -4.1359   -0.1263    4.0209 C.2       1 <0>         0.0000
      8 C8         -2.8738   -1.5776    2.7457 C.ar      1 <0>         0.0000
      9 C9         -9.1743    4.6620    6.1341 C.ar      1 <0>         0.0000
     10 C10        -8.3882    4.4120    7.2899 C.ar      1 <0>         0.0000
     11 C11        -7.1295    2.9903    6.0798 C.ar      1 <0>         0.0000
     12 C12        -4.6468    0.6594    5.1259 C.2       1 <0>         0.0000
     13 C13       -10.3404    5.6078    6.1432 C.3       1 <0>         0.0000
     14 N1         -8.8579    4.0306    5.0082 N.ar      1 <0>         0.0000
     15 N2         -7.3682    3.5830    7.2777 N.ar      1 <0>         0.0000
     16 N3         -7.8277    3.1786    4.9511 N.ar      1 <0>         0.0000
     17 N4         -5.6650    1.4383    4.9874 N.2       1 <0>         0.0000
     18 N5         -3.8802   -1.0234    1.9679 N.pl3     1 <0>         0.0000
     19 N6         -6.0609    2.1296    6.0884 N.pl3     1 <0>         0.0000
     20 O1         -8.6996    5.0478    8.4406 O.3       1 <0>         0.0000
     21 H1         -0.3945   -2.6672    5.4878 H         1 <0>         0.0000
     22 H2         -0.2017   -3.5923    3.1980 H         1 <0>         0.0000
     23 H3         -2.1669   -1.0379    6.0606 H         1 <0>         0.0000
     24 H4         -1.7893   -2.9062    1.4083 H         1 <0>         0.0000
     25 H5         -5.4727    0.3836    2.3124 H         1 <0>         0.0000
     26 H6         -4.1270    0.5621    6.0898 H         1 <0>         0.0000
     27 H7        -10.0281    6.6183    6.4282 H         1 <0>         0.0000
     28 H8        -10.7833    5.6373    5.1459 H         1 <0>         0.0000
     29 H9        -11.1010    5.2911    6.8651 H         1 <0>         0.0000
     30 H10        -4.0389   -1.2209    0.9899 H         1 <0>         0.0000
     31 H11        -5.5731    2.0300    6.9784 H         1 <0>         0.0000
     32 H12        -8.0547    4.7497    9.1099 H         1 <0>         0.0000
@<TRIPOS>BOND
     1    1    2 ar
     2    1    3 ar
     3    1   21 1
     4    2    4 ar
     5    2   22 1
     6    3    6 ar
     7    3   23 1
     8    4    8 ar
     9    4   24 1
    10    5    7 2
    11    5   18 1
    12    5   25 1
    13    6    7 1
    14    6    8 ar
    15    7   12 1
    16    8   18 1
    17    9   10 ar
    18    9   13 1
    19    9   14 ar
    20   10   15 ar
    21   10   20 1
    22   11   15 ar
    23   11   16 ar
    24   11   19 1
    25   12   17 2
    26   12   26 1
    27   13   27 1
    28   13   28 1
    29   13   29 1
    30   14   16 ar
    31   17   19 1
    32   18   30 1
    33   19   31 1
    34   20   32 1
