@<TRIPOS>MOLECULE
*****
   37    39     0     0     0
SMALL
NO_CHARGES

@<TRIPOS>ATOM
      1 C1          5.0559    0.0941    6.2425 C.1       1 <0>         0.0000
      2 C2          4.8012   -1.0465    6.5685 C.1       1 <0>         0.0000
      3 C3          1.9482   -0.6401    0.5272 C.ar      1 <0>         0.0000
      4 C4          0.5642   -0.7045    0.7318 C.ar      1 <0>         0.0000
      5 C5          5.0887   -4.4801    8.0109 C.ar      1 <0>         0.0000
      6 C6          5.4114   -3.1653    7.6733 C.ar      1 <0>         0.0000
      7 C7          2.7945   -1.4481    1.2858 C.ar      1 <0>         0.0000
      8 C8          0.0504   -1.5739    1.6932 C.ar      1 <0>         0.0000
      9 C9          3.8803   -5.0452    7.6002 C.ar      1 <0>         0.0000
     10 C10         3.2617   -2.9546    6.5481 C.ar      1 <0>         0.0000
     11 C11         4.4938   -2.3975    6.9335 C.ar      1 <0>         0.0000
     12 C12         2.2853   -2.3268    2.2542 C.ar      1 <0>         0.0000
     13 C13         0.8983   -2.3856    2.4613 C.ar      1 <0>         0.0000
     14 C14         2.9582   -4.2839    6.8624 C.ar      1 <0>         0.0000
     15 C15         0.7910   -4.4091    5.5666 C.2       1 <0>         0.0000
     16 C16         3.2229   -3.1888    3.0727 C.3       1 <0>         0.0000
     17 C17         0.2770   -3.3209    3.4798 C.3       1 <0>         0.0000
     18 C18         2.4875   -4.3558    3.7267 C.3       1 <0>         0.0000
     19 N1          1.2752   -3.8695    4.3958 N.am      1 <0>         0.0000
     20 N2          1.7405   -4.9006    6.4775 N.am      1 <0>         0.0000
     21 O1         -0.4101   -4.4875    5.8269 O.2       1 <0>         0.0000
     22 H1          5.2775    1.1019    5.9615 H         1 <0>         0.0000
     23 H2          2.3613    0.0335   -0.2192 H         1 <0>         0.0000
     24 H3         -0.1067   -0.0794    0.1482 H         1 <0>         0.0000
     25 H4          5.7912   -5.0793    8.5837 H         1 <0>         0.0000
     26 H5          6.3587   -2.7286    7.9731 H         1 <0>         0.0000
     27 H6          3.8703   -1.4029    1.1271 H         1 <0>         0.0000
     28 H7         -1.0246   -1.6227    1.8572 H         1 <0>         0.0000
     29 H8          3.6482   -6.0804    7.8375 H         1 <0>         0.0000
     30 H9          2.5510   -2.3468    6.0017 H         1 <0>         0.0000
     31 H10         4.0259   -3.5784    2.4369 H         1 <0>         0.0000
     32 H11         3.7026   -2.5815    3.8485 H         1 <0>         0.0000
     33 H12        -0.4736   -2.7955    4.0719 H         1 <0>         0.0000
     34 H13        -0.2513   -4.1375    2.9635 H         1 <0>         0.0000
     35 H14         2.1935   -5.0896    2.9608 H         1 <0>         0.0000
     36 H15         3.1281   -4.8681    4.4411 H         1 <0>         0.0000
     37 H16         1.2675   -5.4024    7.2211 H         1 <0>         0.0000
@<TRIPOS>BOND
     1    1    2 3
     2    1   22 1
     3    2   11 1
     4    3    4 ar
     5    3    7 ar
     6    3   23 1
     7    4    8 ar
     8    4   24 1
     9    5    6 ar
    10    5    9 ar
    11    5   25 1
    12    6   11 ar
    13    6   26 1
    14    7   12 ar
    15    7   27 1
    16    8   13 ar
    17    8   28 1
    18    9   14 ar
    19    9   29 1
    20   10   11 ar
    21   10   14 ar
    22   10   30 1
    23   12   13 ar
    24   12   16 1
    25   13   17 1
    26   14   20 1
    27   15   19 am
    28   15   20 am
    29   15   21 2
    30   16   18 1
    31   16   31 1
    32   16   32 1
    33   17   19 1
    34   17   33 1
    35   17   34 1
    36   18   19 1
    37   18   35 1
    38   18   36 1
    39   20   37 1
