@<TRIPOS>MOLECULE
*****
   25    26     0     0     0
SMALL
NO_CHARGES

@<TRIPOS>ATOM
      1 C1          2.4585    0.1541    1.2478 C.ar      1 <0>         0.0000
      2 C2          1.1989    0.5122    1.7122 C.ar      1 <0>         0.0000
      3 C3          2.9136   -1.1591    1.3905 C.ar      1 <0>         0.0000
      4 C4         -3.1940    4.9379    2.9569 C.2       1 <0>         0.0000
      5 C5          0.3602   -0.4282    2.3397 C.ar      1 <0>         0.0000
      6 C6          2.0964   -2.1110    2.0023 C.ar      1 <0>         0.0000
      7 C7          0.8240   -1.7545    2.4778 C.ar      1 <0>         0.0000
      8 C8         -3.0457    2.7777    3.0963 C.2       1 <0>         0.0000
      9 C9         -0.9687   -0.0319    2.8222 C.2       1 <0>         0.0000
     10 N1         -4.3625    4.4454    2.6305 N.2       1 <0>         0.0000
     11 N2         -4.2671    3.0553    2.7058 N.2       1 <0>         0.0000
     12 N3         -1.3017    1.2102    2.8849 N.2       1 <0>         0.0000
     13 N4         -2.3154    3.9263    3.2753 N.pl3     1 <0>         0.0000
     14 N5         -1.0034    4.1014    3.7546 N.3       1 <0>         0.0000
     15 N6         -2.5522    1.5054    3.3703 N.pl3     1 <0>         0.0000
     16 Cl1         2.6991   -3.7420    2.1605 Cl        1 <0>         0.0000
     17 Cl2        -0.1747   -2.9633    3.2568 Cl        1 <0>         0.0000
     18 H1          3.0919    0.8909    0.7626 H         1 <0>         0.0000
     19 H2          0.8296    1.5240    1.5852 H         1 <0>         0.0000
     20 H3          3.8925   -1.4551    1.0280 H         1 <0>         0.0000
     21 H4         -2.9095    5.9810    2.9798 H         1 <0>         0.0000
     22 H5         -1.6617   -0.8204    3.1258 H         1 <0>         0.0000
     23 H6         -0.4111    3.4461    3.2452 H         1 <0>         0.0000
     24 H7         -0.9892    3.8153    4.7348 H         1 <0>         0.0000
     25 H8         -3.2722    0.7849    3.2963 H         1 <0>         0.0000
@<TRIPOS>BOND
     1    1    2 ar
     2    1    3 ar
     3    1   18 1
     4    2    5 ar
     5    2   19 1
     6    3    6 ar
     7    3   20 1
     8    4   10 2
     9    4   13 1
    10    4   21 1
    11    5    7 ar
    12    5    9 1
    13    6    7 ar
    14    6   16 1
    15    7   17 1
    16    8   11 2
    17    8   13 1
    18    8   15 1
    19    9   12 2
    20    9   22 1
    21   10   11 1
    22   12   15 1
    23   13   14 1
    24   14   23 1
    25   14   24 1
    26   15   25 1
