@<TRIPOS>MOLECULE
*****
   38    40     0     0     0
SMALL
NO_CHARGES

@<TRIPOS>ATOM
      1 C1          1.8908   -1.4698   -0.0299 C.ar      1 <0>         0.0000
      2 C2          2.5754   -1.8926    2.2383 C.ar      1 <0>         0.0000
      3 C3          0.8836   -0.6159    0.4240 C.ar      1 <0>         0.0000
      4 C4          1.5671   -1.0535    2.7097 C.ar      1 <0>         0.0000
      5 C5         -2.2085    1.4938    2.7713 C.2       1 <0>         0.0000
      6 C6          2.7527   -2.1204    0.8642 C.ar      1 <0>         0.0000
      7 C7          0.7171   -0.4216    1.7970 C.ar      1 <0>         0.0000
      8 C8         -1.1233    1.9893    3.5658 C.2       1 <0>         0.0000
      9 C9         -1.6218    0.5023    1.9831 C.2       1 <0>         0.0000
     10 C10        -6.5466    2.3044    3.1968 C.2       1 <0>         0.0000
     11 C11        -5.9089    4.3053    3.8549 C.2       1 <0>         0.0000
     12 C12        -3.6004    1.8692    2.7463 C.2       1 <0>         0.0000
     13 C13         3.8655   -3.0116    0.3649 C.3       1 <0>         0.0000
     14 C14        -1.1469    3.0755    4.5922 C.3       1 <0>         0.0000
     15 C15        -6.5760    0.8547    2.8424 C.3       1 <0>         0.0000
     16 N1          0.0067    1.3543    3.2763 N.2       1 <0>         0.0000
     17 N2         -7.6138    3.0419    3.3873 N.2       1 <0>         0.0000
     18 N3         -7.2169    4.3129    3.7910 N.2       1 <0>         0.0000
     19 N4         -4.0613    2.7853    3.5317 N.2       1 <0>         0.0000
     20 N5         -0.3015    0.4437    2.2941 N.pl3     1 <0>         0.0000
     21 N6         -5.4106    3.0716    3.4675 N.pl3     1 <0>         0.0000
     22 S1         -4.9158    5.6802    4.3179 S.3       1 <0>         0.0000
     23 Cl1        -2.3877   -0.5610    0.8641 Cl        1 <0>         0.0000
     24 H1          2.0135   -1.6197   -1.0998 H         1 <0>         0.0000
     25 H2          3.2324   -2.3840    2.9522 H         1 <0>         0.0000
     26 H3          0.2450   -0.0994   -0.2848 H         1 <0>         0.0000
     27 H4          1.4338   -0.8777    3.7719 H         1 <0>         0.0000
     28 H5         -4.2315    1.3468    2.0272 H         1 <0>         0.0000
     29 H6          4.8044   -2.4511    0.2811 H         1 <0>         0.0000
     30 H7          4.0438   -3.8477    1.0476 H         1 <0>         0.0000
     31 H8          3.6375   -3.4218   -0.6228 H         1 <0>         0.0000
     32 H9         -1.8978    2.8708    5.3605 H         1 <0>         0.0000
     33 H10        -0.1619    3.1639    5.0554 H         1 <0>         0.0000
     34 H11        -1.4106    4.0340    4.1332 H         1 <0>         0.0000
     35 H12        -6.3090    0.6696    1.7962 H         1 <0>         0.0000
     36 H13        -5.9020    0.2686    3.4758 H         1 <0>         0.0000
     37 H14        -7.5970    0.5011    2.9967 H         1 <0>         0.0000
     38 H15        -3.7746    4.9602    4.3569 H         1 <0>         0.0000
@<TRIPOS>BOND
     1    1    3 ar
     2    1    6 ar
     3    1   24 1
     4    2    4 ar
     5    2    6 ar
     6    2   25 1
     7    3    7 ar
     8    3   26 1
     9    4    7 ar
    10    4   27 1
    11    5    8 1
    12    5    9 2
    13    5   12 1
    14    6   13 1
    15    7   20 1
    16    8   14 1
    17    8   16 2
    18    9   20 1
    19    9   23 1
    20   10   15 1
    21   10   17 2
    22   10   21 1
    23   11   18 2
    24   11   21 1
    25   11   22 1
    26   12   19 2
    27   12   28 1
    28   13   29 1
    29   13   30 1
    30   13   31 1
    31   14   32 1
    32   14   33 1
    33   14   34 1
    34   15   35 1
    35   15   36 1
    36   15   37 1
    37   16   20 1
    38   17   18 1
    39   19   21 1
    40   22   38 1
