@<TRIPOS>MOLECULE
*****
   19    19     0     0     0
SMALL
NO_CHARGES

@<TRIPOS>ATOM
      1 C1          4.7020    1.2310    0.8280 C.2       1 <0>         0.0000
      2 C2          3.5060    0.4980    0.9370 C.2       1 <0>         0.0000
      3 C3          5.4280    0.9050   -0.2820 C.2       1 <0>         0.0000
      4 C4          3.3420   -0.3780   -0.1030 C.2       1 <0>         0.0000
      5 C5          0.9320   -0.9350   -0.0310 C.2       1 <0>         0.0000
      6 C6         -0.1900   -1.9040   -0.3200 C.3       1 <0>         0.0000
      7 C7          2.5710   -2.5880   -0.9320 C.3       1 <0>         0.0000
      8 N1          2.2480   -1.2860   -0.3170 N.am      1 <0>         0.0000
      9 O1          0.6790    0.1550    0.4420 O.2       1 <0>         0.0000
     10 S1          4.6550   -0.3210   -1.2330 S.3       1 <0>         0.0000
     11 H1          5.0090    1.9620    1.5310 H         1 <0>         0.0000
     12 H2          2.8070    0.6080    1.7250 H         1 <0>         0.0000
     13 H3          6.3560    1.3180   -0.5830 H         1 <0>         0.0000
     14 H4         -1.1150   -1.3860   -0.1080 H         1 <0>         0.0000
     15 H5         -0.0590   -2.7510    0.3370 H         1 <0>         0.0000
     16 H6         -0.1250   -2.1790   -1.3620 H         1 <0>         0.0000
     17 H7          1.9550   -3.3550   -0.4840 H         1 <0>         0.0000
     18 H8          3.6100   -2.8080   -0.7300 H         1 <0>         0.0000
     19 H9          2.3940   -2.4970   -1.9950 H         1 <0>         0.0000
@<TRIPOS>BOND
     1    1    2 1
     2    1    3 2
     3    1   11 1
     4    2    4 2
     5    2   12 1
     6    3   10 1
     7    3   13 1
     8    4    8 1
     9    4   10 1
    10    5    6 1
    11    5    8 am
    12    5    9 2
    13    6   14 1
    14    6   15 1
    15    6   16 1
    16    7    8 1
    17    7   17 1
    18    7   18 1
    19    7   19 1
