@<TRIPOS>MOLECULE
*****
   47    49     0     0     0
SMALL
NO_CHARGES

@<TRIPOS>ATOM
      1 C1          3.7952    7.8630   -6.6172 C.ar      1 <0>         0.0000
      2 C2          5.2790    6.7664   -5.0733 C.ar      1 <0>         0.0000
      3 C3          4.8728    8.5502   -7.1825 C.ar      1 <0>         0.0000
      4 C4          6.3701    7.4434   -5.6235 C.ar      1 <0>         0.0000
      5 C5          3.9774    6.9632   -5.5578 C.ar      1 <0>         0.0000
      6 C6          6.1554    8.3341   -6.6768 C.ar      1 <0>         0.0000
      7 C7          1.7063    0.9376   -0.8498 C.2       1 <0>         0.0000
      8 C8          2.8539    2.8285   -1.3096 C.2       1 <0>         0.0000
      9 C9          0.8024    4.0484   -2.1883 C.2       1 <0>         0.0000
     10 C10         0.1032   -1.0545   -0.5924 C.3       1 <0>         0.0000
     11 C11         0.4573   -0.6052    0.7980 C.3       1 <0>         0.0000
     12 C12         1.4557   -0.4196   -0.3466 C.3       1 <0>         0.0000
     13 C13         0.4644    7.2470   -1.9104 C.3       1 <0>         0.0000
     14 C14         4.4943    1.4628    0.9969 C.3       1 <0>         0.0000
     15 C15         2.8028    6.2655   -4.9131 C.3       1 <0>         0.0000
     16 C16         2.2399    7.0671   -3.7248 C.3       1 <0>         0.0000
     17 C17         1.0974    6.3586   -2.9883 C.3       1 <0>         0.0000
     18 N1          0.8123    1.7565   -1.3266 N.2       1 <0>         0.0000
     19 N2          2.9592    1.5334   -0.8171 N.am      1 <0>         0.0000
     20 N3          1.5061    2.9301   -1.6132 N.am      1 <0>         0.0000
     21 N4          1.6104    5.1129   -2.4122 N.am      1 <0>         0.0000
     22 N5          4.1375    0.9481   -0.3395 N.3       1 <0>         0.0000
     23 O1          3.7732    3.6439   -1.4452 O.2       1 <0>         0.0000
     24 O2         -0.3895    3.9794   -2.4314 O.2       1 <0>         0.0000
     25 Cl1         7.5212    9.1912   -7.3800 Cl        1 <0>         0.0000
     26 H1          2.7960    8.0300   -7.0141 H         1 <0>         0.0000
     27 H2          5.4467    6.0695   -4.2547 H         1 <0>         0.0000
     28 H3          4.7212    9.2413   -8.0058 H         1 <0>         0.0000
     29 H4          7.3741    7.2808   -5.2440 H         1 <0>         0.0000
     30 H5          0.0935   -2.1185   -0.8069 H         1 <0>         0.0000
     31 H6         -0.6141   -0.4584   -1.1465 H         1 <0>         0.0000
     32 H7         -0.0229    0.2930    1.1732 H         1 <0>         0.0000
     33 H8          0.6994   -1.3538    1.5466 H         1 <0>         0.0000
     34 H9          2.3351   -1.0543   -0.3394 H         1 <0>         0.0000
     35 H10         1.2122    7.5505   -1.1693 H         1 <0>         0.0000
     36 H11         0.0377    8.1508   -2.3586 H         1 <0>         0.0000
     37 H12        -0.3359    6.7065   -1.3983 H         1 <0>         0.0000
     38 H13         3.7324    1.1404    1.7109 H         1 <0>         0.0000
     39 H14         4.5870    2.5548    1.0256 H         1 <0>         0.0000
     40 H15         5.4475    1.0090    1.2811 H         1 <0>         0.0000
     41 H16         2.0055    6.1119   -5.6492 H         1 <0>         0.0000
     42 H17         3.1069    5.2721   -4.5682 H         1 <0>         0.0000
     43 H18         1.8773    8.0375   -4.0811 H         1 <0>         0.0000
     44 H19         3.0490    7.2872   -3.0154 H         1 <0>         0.0000
     45 H20         0.3217    6.0756   -3.7067 H         1 <0>         0.0000
     46 H21         2.5856    5.0470   -2.1259 H         1 <0>         0.0000
     47 H22         4.8679    1.1876   -1.0092 H         1 <0>         0.0000
@<TRIPOS>BOND
     1    1    3 ar
     2    1    5 ar
     3    1   26 1
     4    2    4 ar
     5    2    5 ar
     6    2   27 1
     7    3    6 ar
     8    3   28 1
     9    4    6 ar
    10    4   29 1
    11    5   15 1
    12    6   25 1
    13    7   12 1
    14    7   18 2
    15    7   19 1
    16    8   19 am
    17    8   20 am
    18    8   23 2
    19    9   20 am
    20    9   21 am
    21    9   24 2
    22   10   11 1
    23   10   12 1
    24   10   30 1
    25   10   31 1
    26   11   12 1
    27   11   32 1
    28   11   33 1
    29   12   34 1
    30   13   17 1
    31   13   35 1
    32   13   36 1
    33   13   37 1
    34   14   22 1
    35   14   38 1
    36   14   39 1
    37   14   40 1
    38   15   16 1
    39   15   41 1
    40   15   42 1
    41   16   17 1
    42   16   43 1
    43   16   44 1
    44   17   21 1
    45   17   45 1
    46   18   20 1
    47   19   22 1
    48   21   46 1
    49   22   47 1
