@<TRIPOS>MOLECULE
*****
   42    45     0     0     0
SMALL
NO_CHARGES

@<TRIPOS>ATOM
      1 C1         -1.7094   -0.5485    2.1676 C.1       1 <0>         0.0000
      2 C2          0.2320    2.6262   -2.3891 C.ar      1 <0>         0.0000
      3 C3          0.4687    1.2545   -2.1372 C.ar      1 <0>         0.0000
      4 C4          0.1092    3.5698   -1.3625 C.ar      1 <0>         0.0000
      5 C5          0.5315    1.7357    0.1886 C.ar      1 <0>         0.0000
      6 C6          0.6167    0.7858   -0.8305 C.ar      1 <0>         0.0000
      7 C7          0.6262    1.5283    1.5956 C.2       1 <0>         0.0000
      8 C8          0.2548    3.0996   -0.0522 C.ar      1 <0>         0.0000
      9 C9          0.3872    2.7388    2.2026 C.2       1 <0>         0.0000
     10 C10        -1.3412   -3.7722   -1.4521 C.2       1 <0>         0.0000
     11 C11         0.9736    0.1538    2.0747 C.3       1 <0>         0.0000
     12 C12        -0.0397   -1.6116   -1.3191 C.3       1 <0>         0.0000
     13 C13        -1.5556   -2.3221    0.5621 C.3       1 <0>         0.0000
     14 C14         0.8054   -0.6680   -0.4172 C.3       1 <0>         0.0000
     15 C15        -0.5943   -2.8080   -0.5461 C.3       1 <0>         0.0000
     16 C16         0.4612   -0.9136    1.0862 C.3       1 <0>         0.0000
     17 C17         0.3076    3.1087    3.6472 C.3       1 <0>         0.0000
     18 C18        -2.3953   -5.8903   -1.5459 C.3       1 <0>         0.0000
     19 N1         -2.3461   -0.0611    3.0220 N.1       1 <0>         0.0000
     20 N2          0.1788    3.6971    1.1984 N.pl3     1 <0>         0.0000
     21 N3         -1.0063   -1.0994    1.1811 N.3       1 <0>         0.0000
     22 O1         -1.6498   -3.5631   -2.6081 O.2       1 <0>         0.0000
     23 O2         -1.6439   -4.9147   -0.7900 O.3       1 <0>         0.0000
     24 H1          0.1239    2.9565   -3.4189 H         1 <0>         0.0000
     25 H2          0.5164    0.5705   -2.9807 H         1 <0>         0.0000
     26 H3         -0.0993    4.6128   -1.5872 H         1 <0>         0.0000
     27 H4          2.0639    0.0327    2.1241 H         1 <0>         0.0000
     28 H5          0.5894   -0.0614    3.0763 H         1 <0>         0.0000
     29 H6         -0.8852   -1.0579   -1.7336 H         1 <0>         0.0000
     30 H7          0.5488   -1.9570   -2.1723 H         1 <0>         0.0000
     31 H8         -2.5291   -2.0727    0.1277 H         1 <0>         0.0000
     32 H9         -1.7053   -3.1100    1.3093 H         1 <0>         0.0000
     33 H10         1.8650   -0.9355   -0.5298 H         1 <0>         0.0000
     34 H11         0.2166   -3.3804   -0.0830 H         1 <0>         0.0000
     35 H12         0.9315   -1.8592    1.3862 H         1 <0>         0.0000
     36 H13         1.0781    3.8377    3.9276 H         1 <0>         0.0000
     37 H14        -0.6702    3.5385    3.8954 H         1 <0>         0.0000
     38 H15         0.4405    2.2203    4.2680 H         1 <0>         0.0000
     39 H16        -2.5566   -6.7244   -0.8635 H         1 <0>         0.0000
     40 H17        -1.8265   -6.2111   -2.4214 H         1 <0>         0.0000
     41 H18        -3.3482   -5.4665   -1.8707 H         1 <0>         0.0000
     42 H19        -0.0814    4.6570    1.3749 H         1 <0>         0.0000
@<TRIPOS>BOND
     1    1   19 3
     2    1   21 1
     3    2    3 ar
     4    2    4 ar
     5    2   24 1
     6    3    6 ar
     7    3   25 1
     8    4    8 ar
     9    4   26 1
    10    5    6 ar
    11    5    7 1
    12    5    8 ar
    13    6   14 1
    14    7    9 2
    15    7   11 1
    16    8   20 1
    17    9   17 1
    18    9   20 1
    19   10   15 1
    20   10   22 2
    21   10   23 1
    22   11   16 1
    23   11   27 1
    24   11   28 1
    25   12   14 1
    26   12   15 1
    27   12   29 1
    28   12   30 1
    29   13   15 1
    30   13   21 1
    31   13   31 1
    32   13   32 1
    33   14   16 1
    34   14   33 1
    35   15   34 1
    36   16   21 1
    37   16   35 1
    38   17   36 1
    39   17   37 1
    40   17   38 1
    41   18   23 1
    42   18   39 1
    43   18   40 1
    44   18   41 1
    45   20   42 1
