@<TRIPOS>MOLECULE
*****
   28    29     0     0     0
SMALL
NO_CHARGES

@<TRIPOS>ATOM
      1 C1          2.8647   -2.4627   -4.9113 C.1       1 <0>         0.0000
      2 C2          1.8111   -2.1695    0.5721 C.ar      1 <0>         0.0000
      3 C3          0.7769   -1.4919    1.2142 C.ar      1 <0>         0.0000
      4 C4          3.3495   -0.3982    1.1619 C.ar      1 <0>         0.0000
      5 C5          3.2295   -2.8631   -3.6040 C.2       1 <0>         0.0000
      6 C6          3.1058   -1.6290    0.5457 C.ar      1 <0>         0.0000
      7 C7          1.0373   -0.2684    1.8296 C.ar      1 <0>         0.0000
      8 C8          2.3158    0.2873    1.8084 C.ar      1 <0>         0.0000
      9 C9          3.2790   -4.1805   -3.0433 C.2       1 <0>         0.0000
     10 C10         3.5956   -2.0062   -2.5572 C.2       1 <0>         0.0000
     11 C11         2.9748   -5.4713   -3.7341 C.3       1 <0>         0.0000
     12 C12         4.2273   -2.3727   -0.1565 C.3       1 <0>         0.0000
     13 N1          2.5620   -2.1069   -5.9826 N.1       1 <0>         0.0000
     14 N2          3.6383   -4.1364   -1.7673 N.2       1 <0>         0.0000
     15 N3          3.8514   -2.8011   -1.4918 N.pl3     1 <0>         0.0000
     16 N4          3.7748   -0.6329   -2.5275 N.pl3     1 <0>         0.0000
     17 F1          0.0290    0.3798    2.4444 F         1 <0>         0.0000
     18 Br1         2.6438    1.9693    2.6384 Br        1 <0>         0.0000
     19 H1          1.6160   -3.1197    0.0827 H         1 <0>         0.0000
     20 H2         -0.2323   -1.8911    1.2488 H         1 <0>         0.0000
     21 H3          4.3441    0.0386    1.1434 H         1 <0>         0.0000
     22 H4          3.6617   -5.6366   -4.5707 H         1 <0>         0.0000
     23 H5          3.0706   -6.3007   -3.0306 H         1 <0>         0.0000
     24 H6          1.9590   -5.4670   -4.1429 H         1 <0>         0.0000
     25 H7          5.1206   -1.7431   -0.2210 H         1 <0>         0.0000
     26 H8          4.4925   -3.2845    0.3827 H         1 <0>         0.0000
     27 H9          3.4632   -0.1828   -3.3828 H         1 <0>         0.0000
     28 H10         3.3792   -0.1772   -1.7093 H         1 <0>         0.0000
@<TRIPOS>BOND
     1    1    5 1
     2    1   13 3
     3    2    3 ar
     4    2    6 ar
     5    2   19 1
     6    3    7 ar
     7    3   20 1
     8    4    6 ar
     9    4    8 ar
    10    4   21 1
    11    5    9 1
    12    5   10 2
    13    6   12 1
    14    7    8 ar
    15    7   17 1
    16    8   18 1
    17    9   11 1
    18    9   14 2
    19   10   15 1
    20   10   16 1
    21   11   22 1
    22   11   23 1
    23   11   24 1
    24   12   15 1
    25   12   25 1
    26   12   26 1
    27   14   15 1
    28   16   27 1
    29   16   28 1
