@<TRIPOS>MOLECULE
*****
   14    14     0     0     0
SMALL
NO_CHARGES

@<TRIPOS>ATOM
      1 C1         -1.0716   -0.0263   -0.7966 C.3       1 <0>         0.0000
      2 C2          0.2851    0.5463   -1.1952 C.3       1 <0>         0.0000
      3 C3          0.1012   -0.0353    0.1691 C.3       1 <0>         0.0000
      4 C4          0.7392   -1.3494    0.5469 C.3       1 <0>         0.0000
      5 O1          0.0882    0.9021    1.2222 O.3       1 <0>         0.0000
      6 O2          0.0348   -1.9601    1.6411 O.3       1 <0>         0.0000
      7 H1         -1.8661    0.6844   -0.5926 H         1 <0>         0.0000
      8 H2         -1.3886   -0.9582   -1.2597 H         1 <0>         0.0000
      9 H3          0.8850    0.0010   -1.9186 H         1 <0>         0.0000
     10 H4          0.3723    1.6270   -1.2447 H         1 <0>         0.0000
     11 H5          1.7544   -1.1808    0.9155 H         1 <0>         0.0000
     12 H6          0.7872   -2.0230   -0.3191 H         1 <0>         0.0000
     13 H7         -0.2579    0.4305    2.0000 H         1 <0>         0.0000
     14 H8         -0.8524   -2.1931    1.3219 H         1 <0>         0.0000
@<TRIPOS>BOND
     1    1    2 1
     2    1    3 1
     3    1    7 1
     4    1    8 1
     5    2    3 1
     6    2    9 1
     7    2   10 1
     8    3    4 1
     9    3    5 1
    10    4    6 1
    11    4   11 1
    12    4   12 1
    13    5   13 1
    14    6   14 1
