@<TRIPOS>MOLECULE
*****
   18    18     0     0     0
SMALL
NO_CHARGES

@<TRIPOS>ATOM
      1 C1          1.5796    0.4895    1.5922 C.2       1 <0>         0.0000
      2 C2          1.4369    0.2936    2.9650 C.2       1 <0>         0.0000
      3 C3          0.3609    0.0685    0.9993 C.2       1 <0>         0.0000
      4 C4         -0.4923   -0.3707    2.0080 C.2       1 <0>         0.0000
      5 C5         -1.8539   -0.9178    2.0409 C.2       1 <0>         0.0000
      6 C6         -3.8088   -1.6109    0.7093 C.3       1 <0>         0.0000
      7 N1          0.1983   -0.2197    3.1965 N.pl3     1 <0>         0.0000
      8 N2         -2.4856   -1.0217    0.8348 N.am      1 <0>         0.0000
      9 O1         -2.3763   -1.2465    3.1180 O.2       1 <0>         0.0000
     10 O2          0.0111    0.0629   -0.3335 O.3       1 <0>         0.0000
     11 H1          2.4546    0.8859    1.0915 H         1 <0>         0.0000
     12 H2          2.1325    0.4870    3.7697 H         1 <0>         0.0000
     13 H3         -3.7620   -2.6957    0.5477 H         1 <0>         0.0000
     14 H4         -4.3355   -1.1496   -0.1307 H         1 <0>         0.0000
     15 H5         -4.3655   -1.4258    1.6289 H         1 <0>         0.0000
     16 H6         -0.2221   -0.4750    4.0820 H         1 <0>         0.0000
     17 H7         -1.9592   -0.7916    0.0005 H         1 <0>         0.0000
     18 H8          0.7550    0.3985   -0.8564 H         1 <0>         0.0000
@<TRIPOS>BOND
     1    1    2 2
     2    1    3 1
     3    1   11 1
     4    2    7 1
     5    2   12 1
     6    3    4 2
     7    3   10 1
     8    4    5 1
     9    4    7 1
    10    5    8 am
    11    5    9 2
    12    6    8 1
    13    6   13 1
    14    6   14 1
    15    6   15 1
    16    7   16 1
    17    8   17 1
    18   10   18 1
