@<TRIPOS>MOLECULE
*****
   20    21     0     0     0
SMALL
NO_CHARGES

@<TRIPOS>ATOM
      1 C1          1.2414    0.1370    1.7228 C.ar      1 <0>         0.0000
      2 C2          0.4753   -3.8272    6.3796 C.ar      1 <0>         0.0000
      3 C3          0.2660   -0.4449    0.9082 C.ar      1 <0>         0.0000
      4 C4          1.4507   -3.2453    7.1943 C.ar      1 <0>         0.0000
      5 C5          1.4861   -0.4135    2.9794 C.ar      1 <0>         0.0000
      6 C6          0.2305   -3.2767    5.1231 C.ar      1 <0>         0.0000
      7 C7         -0.4213   -1.5598    1.3986 C.ar      1 <0>         0.0000
      8 C8          2.1379   -2.1304    6.7039 C.ar      1 <0>         0.0000
      9 C9          0.7436   -1.5348    3.3836 C.ar      1 <0>         0.0000
     10 C10         0.9730   -2.1553    4.7189 C.ar      1 <0>         0.0000
     11 N1         -0.1968   -2.0981    2.6014 N.ar      1 <0>         0.0000
     12 N2          1.9134   -1.5921    5.5011 N.ar      1 <0>         0.0000
     13 H1          1.8011    1.0051    1.3836 H         1 <0>         0.0000
     14 H2         -0.0844   -4.6954    6.7188 H         1 <0>         0.0000
     15 H3          0.0400   -0.0514   -0.0788 H         1 <0>         0.0000
     16 H4          1.6768   -3.6389    8.1812 H         1 <0>         0.0000
     17 H5          2.2301   -0.0042    3.6531 H         1 <0>         0.0000
     18 H6         -0.5135   -3.6859    4.4494 H         1 <0>         0.0000
     19 H7         -1.1888   -2.0423    0.7946 H         1 <0>         0.0000
     20 H8          2.9054   -1.6479    7.3079 H         1 <0>         0.0000
@<TRIPOS>BOND
     1    1    3 ar
     2    1    5 ar
     3    1   13 1
     4    2    4 ar
     5    2    6 ar
     6    2   14 1
     7    3    7 ar
     8    3   15 1
     9    4    8 ar
    10    4   16 1
    11    5    9 ar
    12    5   17 1
    13    6   10 ar
    14    6   18 1
    15    7   11 ar
    16    7   19 1
    17    8   12 ar
    18    8   20 1
    19    9   10 1
    20    9   11 ar
    21   10   12 ar
