@<TRIPOS>MOLECULE
*****
   23    23     0     0     0
SMALL
NO_CHARGES

@<TRIPOS>ATOM
      1 C1          0.2894    2.4585   -0.2009 C.3       1 <0>         0.0000
      2 C2          0.9460    1.8651    1.0567 C.3       1 <0>         0.0000
      3 C3         -0.9673    1.6807   -0.6188 C.3       1 <0>         0.0000
      4 C4          1.3345    0.3908    0.8808 C.3       1 <0>         0.0000
      5 C5         -0.7000   -1.1831   -2.9660 C.3       1 <0>         0.0000
      6 C6         -0.0244   -0.0366   -2.2175 C.3       1 <0>         0.0000
      7 N1         -0.7037    0.2571   -0.9309 N.pl3     1 <0>         0.0000
      8 O1          0.3046   -1.9098   -0.0392 O.2       1 <0>         0.0000
      9 O2         -1.1125   -0.4255    1.4847 O.2       1 <0>         0.0000
     10 S1         -0.1257   -0.5846    0.4130 S.o2      1 <0>         0.0000
     11 H1          0.0143    3.5018   -0.0103 H         1 <0>         0.0000
     12 H2          1.0103    2.4662   -1.0286 H         1 <0>         0.0000
     13 H3          1.8488    2.4301    1.3131 H         1 <0>         0.0000
     14 H4          0.2606    1.9489    1.9064 H         1 <0>         0.0000
     15 H5         -1.7148    1.7070    0.1781 H         1 <0>         0.0000
     16 H6         -1.4254    2.1214   -1.5084 H         1 <0>         0.0000
     17 H7          2.0718    0.2437    0.0865 H         1 <0>         0.0000
     18 H8          1.7147   -0.0542    1.8040 H         1 <0>         0.0000
     19 H9         -0.6333   -2.1062   -2.3875 H         1 <0>         0.0000
     20 H10        -1.7561   -0.9543   -3.1381 H         1 <0>         0.0000
     21 H11        -0.2123   -1.3392   -3.9350 H         1 <0>         0.0000
     22 H12        -0.0732    0.8821   -2.8098 H         1 <0>         0.0000
     23 H13         1.0401   -0.2591   -2.0716 H         1 <0>         0.0000
@<TRIPOS>BOND
     1    1    2 1
     2    1    3 1
     3    1   11 1
     4    1   12 1
     5    2    4 1
     6    2   13 1
     7    2   14 1
     8    3    7 1
     9    3   15 1
    10    3   16 1
    11    4   10 1
    12    4   17 1
    13    4   18 1
    14    5    6 1
    15    5   19 1
    16    5   20 1
    17    5   21 1
    18    6    7 1
    19    6   22 1
    20    6   23 1
    21    7   10 1
    22    8   10 2
    23    9   10 2
