@<TRIPOS>MOLECULE
*****
   19    19     0     0     0
SMALL
NO_CHARGES

@<TRIPOS>ATOM
      1 C1         -1.6579    1.5442    0.2375 C.2       1 <0>         0.0000
      2 C2         -0.9357    0.4464    1.0064 C.3       1 <0>         0.0000
      3 C3         -1.8648   -0.4023    1.8982 C.3       1 <0>         0.0000
      4 C4         -2.2281    0.2397    3.2443 C.3       1 <0>         0.0000
      5 C5         -2.9952    1.5658    3.1596 C.3       1 <0>         0.0000
      6 C6         -2.2392    2.6855    2.4300 C.3       1 <0>         0.0000
      7 N1         -2.2181    2.5533    0.9751 N.am      1 <0>         0.0000
      8 O1         -1.7526    1.5261   -0.9909 O.2       1 <0>         0.0000
      9 H1         -0.4672   -0.1804    0.2458 H         1 <0>         0.0000
     10 H2         -0.1335    0.8812    1.6172 H         1 <0>         0.0000
     11 H3         -2.7759   -0.6468    1.3380 H         1 <0>         0.0000
     12 H4         -1.3631   -1.3557    2.0994 H         1 <0>         0.0000
     13 H5         -2.8230   -0.4744    3.8263 H         1 <0>         0.0000
     14 H6         -1.3037    0.4049    3.8156 H         1 <0>         0.0000
     15 H7         -3.9625    1.4159    2.6643 H         1 <0>         0.0000
     16 H8         -3.2087    1.9096    4.1795 H         1 <0>         0.0000
     17 H9         -2.7156    3.6458    2.6444 H         1 <0>         0.0000
     18 H10        -1.2140    2.7549    2.8181 H         1 <0>         0.0000
     19 H11        -2.7175    3.2371    0.4189 H         1 <0>         0.0000
@<TRIPOS>BOND
     1    1    2 1
     2    1    7 am
     3    1    8 2
     4    2    3 1
     5    2    9 1
     6    2   10 1
     7    3    4 1
     8    3   11 1
     9    3   12 1
    10    4    5 1
    11    4   13 1
    12    4   14 1
    13    5    6 1
    14    5   15 1
    15    5   16 1
    16    6    7 1
    17    6   17 1
    18    6   18 1
    19    7   19 1
