@<TRIPOS>MOLECULE
*****
   15    15     0     0     0
SMALL
NO_CHARGES

@<TRIPOS>ATOM
      1 C1          1.4019   -0.0597    1.6498 C.ar      1 <0>         0.0000
      2 C2          0.2304   -0.4064    0.9548 C.ar      1 <0>         0.0000
      3 C3          1.6464   -0.6235    2.8935 C.ar      1 <0>         0.0000
      4 C4         -0.6388   -1.3104    1.5558 C.ar      1 <0>         0.0000
      5 C5          0.6928   -1.5285    3.4030 C.ar      1 <0>         0.0000
      6 C6         -0.0129   -2.9884    5.1435 C.3       1 <0>         0.0000
      7 N1         -0.4207   -1.8691    2.7615 N.ar      1 <0>         0.0000
      8 O1          0.9552   -2.0658    4.6209 O.3       1 <0>         0.0000
      9 H1          2.1122    0.6427    1.2212 H         1 <0>         0.0000
     10 H2          0.0029    0.0127   -0.0203 H         1 <0>         0.0000
     11 H3          2.5332   -0.3933    3.4751 H         1 <0>         0.0000
     12 H4         -1.5592   -1.6101    1.0569 H         1 <0>         0.0000
     13 H5          0.3822   -3.2980    6.1120 H         1 <0>         0.0000
     14 H6         -0.1260   -3.8519    4.4823 H         1 <0>         0.0000
     15 H7         -0.9868   -2.5059    5.2639 H         1 <0>         0.0000
@<TRIPOS>BOND
     1    1    2 ar
     2    1    3 ar
     3    1    9 1
     4    2    4 ar
     5    2   10 1
     6    3    5 ar
     7    3   11 1
     8    4    7 ar
     9    4   12 1
    10    5    7 ar
    11    5    8 1
    12    6    8 1
    13    6   13 1
    14    6   14 1
    15    6   15 1
