@<TRIPOS>MOLECULE
*****
   23    24     0     0     0
SMALL
NO_CHARGES

@<TRIPOS>ATOM
      1 C1          1.9212   -0.9151   -0.1346 C.ar      1 <0>         0.0000
      2 C2          0.7768   -0.5327    0.5767 C.ar      1 <0>         0.0000
      3 C3          0.3759   -3.2527    6.6752 C.ar      1 <0>         0.0000
      4 C4         -0.2458   -4.2504    5.9093 C.ar      1 <0>         0.0000
      5 C5          3.0321   -1.4390    0.5297 C.ar      1 <0>         0.0000
      6 C6          0.7453   -0.6791    1.9659 C.ar      1 <0>         0.0000
      7 C7          1.0967   -2.2526    6.0322 C.ar      1 <0>         0.0000
      8 C8         -0.1091   -4.1922    4.5243 C.ar      1 <0>         0.0000
      9 C9          3.0002   -1.5904    1.9197 C.ar      1 <0>         0.0000
     10 C10         1.8515   -1.2072    2.6222 C.ar      1 <0>         0.0000
     11 C11         1.1628   -2.3050    4.6305 C.ar      1 <0>         0.0000
     12 N1          0.5869   -3.2345    3.8865 N.ar      1 <0>         0.0000
     13 O1          4.0890   -2.1062    2.5674 O.3       1 <0>         0.0000
     14 O2          1.9011   -1.3128    4.0204 O.3       1 <0>         0.0000
     15 H1          1.9518   -0.8016   -1.2149 H         1 <0>         0.0000
     16 H2         -0.0832   -0.1226    0.0555 H         1 <0>         0.0000
     17 H3          0.2948   -3.2545    7.7590 H         1 <0>         0.0000
     18 H4         -0.8192   -5.0470    6.3729 H         1 <0>         0.0000
     19 H5          3.9277   -1.7363   -0.0079 H         1 <0>         0.0000
     20 H6         -0.1293   -0.3955    2.5439 H         1 <0>         0.0000
     21 H7          1.5929   -1.4515    6.5704 H         1 <0>         0.0000
     22 H8         -0.5718   -4.9434    3.8866 H         1 <0>         0.0000
     23 H9          3.8959   -2.0871    3.5211 H         1 <0>         0.0000
@<TRIPOS>BOND
     1    1    2 ar
     2    1    5 ar
     3    1   15 1
     4    2    6 ar
     5    2   16 1
     6    3    4 ar
     7    3    7 ar
     8    3   17 1
     9    4    8 ar
    10    4   18 1
    11    5    9 ar
    12    5   19 1
    13    6   10 ar
    14    6   20 1
    15    7   11 ar
    16    7   21 1
    17    8   12 ar
    18    8   22 1
    19    9   10 ar
    20    9   13 1
    21   10   14 1
    22   11   12 ar
    23   11   14 1
    24   13   23 1
