@<TRIPOS>MOLECULE
*****
   19    19     0     0     0
SMALL
NO_CHARGES

@<TRIPOS>ATOM
      1 C1          1.8929   -1.0852   -0.2027 C.ar      1 <0>         0.0000
      2 C2          0.8105   -0.4808    0.4337 C.ar      1 <0>         0.0000
      3 C3          2.9054   -1.6694    0.5713 C.ar      1 <0>         0.0000
      4 C4          0.7357   -0.4576    1.8330 C.ar      1 <0>         0.0000
      5 C5          2.8599   -1.6628    1.9666 C.ar      1 <0>         0.0000
      6 C6          1.7545   -1.0450    2.5919 C.ar      1 <0>         0.0000
      7 C7          3.9449   -2.2887    2.8065 C.3       1 <0>         0.0000
      8 C8          0.6882   -0.4634    4.6586 C.3       1 <0>         0.0000
      9 O1          1.7702   -1.0731    3.9649 O.3       1 <0>         0.0000
     10 H1          1.9541   -1.1049   -1.2873 H         1 <0>         0.0000
     11 H2          0.0159   -0.0227   -0.1496 H         1 <0>         0.0000
     12 H3          3.7525   -2.1426    0.0792 H         1 <0>         0.0000
     13 H4         -0.1136    0.0167    2.3120 H         1 <0>         0.0000
     14 H5          4.4068   -1.5500    3.4704 H         1 <0>         0.0000
     15 H6          3.5416   -3.0785    3.4494 H         1 <0>         0.0000
     16 H7          4.7244   -2.7214    2.1738 H         1 <0>         0.0000
     17 H8          0.9014   -0.5950    5.7205 H         1 <0>         0.0000
     18 H9         -0.2664   -0.9478    4.4176 H         1 <0>         0.0000
     19 H10         0.6198    0.6080    4.4324 H         1 <0>         0.0000
@<TRIPOS>BOND
     1    1    2 ar
     2    1    3 ar
     3    1   10 1
     4    2    4 ar
     5    2   11 1
     6    3    5 ar
     7    3   12 1
     8    4    6 ar
     9    4   13 1
    10    5    6 ar
    11    5    7 1
    12    6    9 1
    13    7   14 1
    14    7   15 1
    15    7   16 1
    16    8    9 1
    17    8   17 1
    18    8   18 1
    19    8   19 1
