@<TRIPOS>MOLECULE
*****
   20    21     0     0     0
SMALL
NO_CHARGES

@<TRIPOS>ATOM
      1 C1          1.4372   -0.1041    1.5893 C.ar      1 <0>         0.0000
      2 C2          1.7477   -2.0945    6.9884 C.ar      1 <0>         0.0000
      3 C3          0.2275   -0.3705    0.9455 C.ar      1 <0>         0.0000
      4 C4          1.3024   -3.4082    7.1448 C.ar      1 <0>         0.0000
      5 C5          1.6758   -0.6893    2.8331 C.ar      1 <0>         0.0000
      6 C6          1.5553   -1.4652    5.7581 C.ar      1 <0>         0.0000
      7 C7         -0.6843   -1.2195    1.5833 C.ar      1 <0>         0.0000
      8 C8          0.6783   -4.0256    6.0549 C.ar      1 <0>         0.0000
      9 C9          0.6966   -1.5269    3.3931 C.ar      1 <0>         0.0000
     10 C10         0.9190   -2.1699    4.7225 C.ar      1 <0>         0.0000
     11 N1         -0.4667   -1.7894    2.7726 N.ar      1 <0>         0.0000
     12 N2          0.4843   -3.4331    4.8725 N.ar      1 <0>         0.0000
     13 H1          2.1839    0.5387    1.1299 H         1 <0>         0.0000
     14 H2          2.2272   -1.5665    7.8088 H         1 <0>         0.0000
     15 H3         -0.0073    0.0600   -0.0238 H         1 <0>         0.0000
     16 H4          1.4279   -3.9430    8.0820 H         1 <0>         0.0000
     17 H5          2.6169   -0.5247    3.3491 H         1 <0>         0.0000
     18 H6          1.8655   -0.4351    5.6105 H         1 <0>         0.0000
     19 H7         -1.6395   -1.4504    1.1128 H         1 <0>         0.0000
     20 H8          0.3181   -5.0505    6.1380 H         1 <0>         0.0000
@<TRIPOS>BOND
     1    1    3 ar
     2    1    5 ar
     3    1   13 1
     4    2    4 ar
     5    2    6 ar
     6    2   14 1
     7    3    7 ar
     8    3   15 1
     9    4    8 ar
    10    4   16 1
    11    5    9 ar
    12    5   17 1
    13    6   10 ar
    14    6   18 1
    15    7   11 ar
    16    7   19 1
    17    8   12 ar
    18    8   20 1
    19    9   10 1
    20    9   11 ar
    21   10   12 ar
