@<TRIPOS>MOLECULE
*****
   21    21     0     0     0
SMALL
NO_CHARGES

@<TRIPOS>ATOM
      1 C1          1.8193   -0.6716   -6.5956 C.2       1 <0>         0.0000
      2 C2          1.0053   -0.1215   -5.5611 C.2       1 <0>         0.0000
      3 C3          2.4247   -1.8470   -6.2186 C.2       1 <0>         0.0000
      4 C4          1.0171   -0.9008   -4.4298 C.2       1 <0>         0.0000
      5 C5          0.7514    0.3830   -0.4475 C.3       1 <0>         0.0000
      6 C6          2.0400    1.4000   -2.4069 C.3       1 <0>         0.0000
      7 C7          1.4177    0.1430   -1.8049 C.3       1 <0>         0.0000
      8 O1         -0.8254    0.5250   -3.2405 O.2       1 <0>         0.0000
      9 O2         -0.3098   -1.8270   -2.3524 O.2       1 <0>         0.0000
     10 S1          2.0037   -2.3193   -4.6090 S.3       1 <0>         0.0000
     11 S2          0.1349   -0.5466   -2.9266 S.o2      1 <0>         0.0000
     12 H1          1.9449   -0.2227   -7.5752 H         1 <0>         0.0000
     13 H2          0.4246    0.7916   -5.6316 H         1 <0>         0.0000
     14 H3          3.0825   -2.4759   -6.8060 H         1 <0>         0.0000
     15 H4         -0.0187    1.1555   -0.5256 H         1 <0>         0.0000
     16 H5          0.2964   -0.5308   -0.0589 H         1 <0>         0.0000
     17 H6          1.5100    0.7238    0.2642 H         1 <0>         0.0000
     18 H7          1.2784    2.1693   -2.5614 H         1 <0>         0.0000
     19 H8          2.5316    1.1961   -3.3617 H         1 <0>         0.0000
     20 H9          2.7924    1.7932   -1.7157 H         1 <0>         0.0000
     21 H10         2.1553   -0.6627   -1.7274 H         1 <0>         0.0000
@<TRIPOS>BOND
     1    1    2 1
     2    1    3 2
     3    1   12 1
     4    2    4 2
     5    2   13 1
     6    3   10 1
     7    3   14 1
     8    4   10 1
     9    4   11 1
    10    5    7 1
    11    5   15 1
    12    5   16 1
    13    5   17 1
    14    6    7 1
    15    6   18 1
    16    6   19 1
    17    6   20 1
    18    7   11 1
    19    7   21 1
    20    8   11 2
    21    9   11 2
