@<TRIPOS>MOLECULE
*****
   21    21     0     0     0
SMALL
NO_CHARGES

@<TRIPOS>ATOM
      1 C1          1.9123   -1.0272   -0.1955 C.ar      1 <0>         0.0000
      2 C2          2.9691   -1.5643    0.5488 C.ar      1 <0>         0.0000
      3 C3          0.7738   -0.5484    0.4604 C.ar      1 <0>         0.0000
      4 C4          2.8905   -1.6240    1.9417 C.ar      1 <0>         0.0000
      5 C5          0.6943   -0.6100    1.8546 C.ar      1 <0>         0.0000
      6 C6          1.7503   -1.1459    2.6062 C.ar      1 <0>         0.0000
      7 C7         -0.0753   -3.5150    3.7684 C.3       1 <0>         0.0000
      8 C8          1.6423   -1.2372    4.1008 C.3       1 <0>         0.0000
      9 O1          2.5193   -3.7693    4.2853 O.2       1 <0>         0.0000
     10 O2          0.9894   -2.8615    6.1219 O.2       1 <0>         0.0000
     11 S1          1.3666   -2.9511    4.7009 S.o2      1 <0>         0.0000
     12 H1          1.9771   -0.9802   -1.2794 H         1 <0>         0.0000
     13 H2          3.8551   -1.9388    0.0432 H         1 <0>         0.0000
     14 H3         -0.0489   -0.1261   -0.1106 H         1 <0>         0.0000
     15 H4          3.7010   -2.0615    2.5171 H         1 <0>         0.0000
     16 H5         -0.1922   -0.2343    2.3614 H         1 <0>         0.0000
     17 H6         -0.2815   -4.5230    4.1335 H         1 <0>         0.0000
     18 H7         -0.9188   -2.8559    3.9801 H         1 <0>         0.0000
     19 H8          0.1665   -3.5310    2.7059 H         1 <0>         0.0000
     20 H9          0.8213   -0.6421    4.5066 H         1 <0>         0.0000
     21 H10         2.5670   -0.9568    4.6139 H         1 <0>         0.0000
@<TRIPOS>BOND
     1    1    3 ar
     2    1    2 ar
     3    1   12 1
     4    2    4 ar
     5    2   13 1
     6    3    5 ar
     7    3   14 1
     8    4    6 ar
     9    4   15 1
    10    5    6 ar
    11    5   16 1
    12    6    8 1
    13    7   11 1
    14    7   17 1
    15    7   18 1
    16    7   19 1
    17    8   11 1
    18    8   20 1
    19    8   21 1
    20    9   11 2
    21   10   11 2
