@<TRIPOS>MOLECULE
*****
   21    21     0     0     0
SMALL
NO_CHARGES

@<TRIPOS>ATOM
      1 C1          1.8489   -1.0091   -0.1988 C.ar      1 <0>         0.0000
      2 C2          2.9433   -1.5824    0.4564 C.ar      1 <0>         0.0000
      3 C3          0.7497   -0.5625    0.5439 C.ar      1 <0>         0.0000
      4 C4          2.9346   -1.7094    1.8484 C.ar      1 <0>         0.0000
      5 C5          0.7420   -0.6876    1.9346 C.ar      1 <0>         0.0000
      6 C6          1.8369   -1.2627    2.5985 C.ar      1 <0>         0.0000
      7 C7          1.1970   -4.2089    3.7022 C.3       1 <0>         0.0000
      8 C8          1.8230   -1.4326    4.0901 C.3       1 <0>         0.0000
      9 O1          0.9843   -3.0154    6.0750 O.2       1 <0>         0.0000
     10 O2         -0.6780   -2.4014    4.2317 O.2       1 <0>         0.0000
     11 S1          0.6867   -2.7604    4.6551 S.o2      1 <0>         0.0000
     12 H1          1.8531   -0.9086   -1.2810 H         1 <0>         0.0000
     13 H2          3.8021   -1.9275   -0.1133 H         1 <0>         0.0000
     14 H3         -0.1035   -0.1177    0.0387 H         1 <0>         0.0000
     15 H4          3.7890   -2.1537    2.3548 H         1 <0>         0.0000
     16 H5         -0.1206   -0.3617    2.5083 H         1 <0>         0.0000
     17 H6          0.5498   -5.0210    4.0389 H         1 <0>         0.0000
     18 H7          1.0490   -4.0123    2.6405 H         1 <0>         0.0000
     19 H8          2.2398   -4.4370    3.9286 H         1 <0>         0.0000
     20 H9          1.4352   -0.5552    4.6163 H         1 <0>         0.0000
     21 H10         2.8038   -1.6829    4.5002 H         1 <0>         0.0000
@<TRIPOS>BOND
     1    1    3 ar
     2    1    2 ar
     3    1   12 1
     4    2    4 ar
     5    2   13 1
     6    3    5 ar
     7    3   14 1
     8    4    6 ar
     9    4   15 1
    10    5    6 ar
    11    5   16 1
    12    6    8 1
    13    7   11 1
    14    7   17 1
    15    7   18 1
    16    7   19 1
    17    8   11 1
    18    8   20 1
    19    8   21 1
    20    9   11 2
    21   10   11 2
