@<TRIPOS>MOLECULE
*****
   17    18     0     0     0
SMALL
NO_CHARGES

@<TRIPOS>ATOM
      1 C1          1.3944   -0.0478    1.6231 C.ar      1 <0>         0.0000
      2 C2          0.2269   -0.4045    0.9451 C.ar      1 <0>         0.0000
      3 C3          1.6438   -0.6118    2.8736 C.ar      1 <0>         0.0000
      4 C4         -0.6410   -1.3166    1.5584 C.ar      1 <0>         0.0000
      5 C5          0.8761   -3.2318    6.5467 C.2       1 <0>         0.0000
      6 C6          2.0252   -2.5000    6.5573 C.2       1 <0>         0.0000
      7 C7          0.7072   -1.5179    3.4003 C.ar      1 <0>         0.0000
      8 C8          0.9302   -2.1358    4.7143 C.2       1 <0>         0.0000
      9 N1         -0.4193   -1.8670    2.7544 N.ar      1 <0>         0.0000
     10 N2          0.1897   -2.9890    5.3663 N.2       1 <0>         0.0000
     11 O1          2.0780   -1.7879    5.3863 O.3       1 <0>         0.0000
     12 H1          2.0986    0.6563    1.1878 H         1 <0>         0.0000
     13 H2         -0.0112    0.0080   -0.0311 H         1 <0>         0.0000
     14 H3          2.5380   -0.3628    3.4346 H         1 <0>         0.0000
     15 H4         -1.5613   -1.6188    1.0603 H         1 <0>         0.0000
     16 H5          0.4972   -3.9108    7.2988 H         1 <0>         0.0000
     17 H6          2.8483   -2.3691    7.2438 H         1 <0>         0.0000
@<TRIPOS>BOND
     1    1    2 ar
     2    1    3 ar
     3    1   12 1
     4    2    4 ar
     5    2   13 1
     6    3    7 ar
     7    3   14 1
     8    4    9 ar
     9    4   15 1
    10    5    6 2
    11    5   10 1
    12    5   16 1
    13    6   11 1
    14    6   17 1
    15    7    8 1
    16    7    9 ar
    17    8   10 2
    18    8   11 1
