@<TRIPOS>MOLECULE
*****
   29    30     0     0     0
SMALL
NO_CHARGES

@<TRIPOS>ATOM
      1 C1          7.4431    2.2622   -0.7157 C.ar      1 <0>         0.0000
      2 C2          7.5032    1.8391    0.6171 C.ar      1 <0>         0.0000
      3 C3          6.4266    1.7869   -1.5512 C.ar      1 <0>         0.0000
      4 C4          6.5518    0.9445    1.1121 C.ar      1 <0>         0.0000
      5 C5          5.4618    0.9095   -1.0493 C.ar      1 <0>         0.0000
      6 C6          5.5142    0.4892    0.2877 C.ar      1 <0>         0.0000
      7 C7          4.5534   -0.5282    0.8409 C.2       1 <0>         0.0000
      8 C8          0.5112   -0.3102   -0.4717 C.3       1 <0>         0.0000
      9 C9          1.5313    0.7814   -0.8243 C.3       1 <0>         0.0000
     10 C10         1.2214   -1.6239   -0.1166 C.3       1 <0>         0.0000
     11 C11         2.5748    0.9265    0.2870 C.3       1 <0>         0.0000
     12 C12         2.2784   -1.4136    0.9729 C.3       1 <0>         0.0000
     13 N1          3.2156   -0.3622    0.5672 N.am      1 <0>         0.0000
     14 O1          4.9847   -1.4980    1.4713 O.2       1 <0>         0.0000
     15 H1          8.1898    2.9505   -1.1035 H         1 <0>         0.0000
     16 H2          8.2978    2.1979    1.2663 H         1 <0>         0.0000
     17 H3          6.3873    2.0961   -2.5926 H         1 <0>         0.0000
     18 H4          6.6078    0.5828    2.1347 H         1 <0>         0.0000
     19 H5          4.6783    0.5332   -1.7018 H         1 <0>         0.0000
     20 H6         -0.1877   -0.4638   -1.3014 H         1 <0>         0.0000
     21 H7         -0.0867    0.0219    0.3883 H         1 <0>         0.0000
     22 H8          2.0417    0.5244   -1.7612 H         1 <0>         0.0000
     23 H9          1.0306    1.7441   -0.9788 H         1 <0>         0.0000
     24 H10         0.4978   -2.3728    0.2247 H         1 <0>         0.0000
     25 H11         1.7134   -2.0310   -1.0087 H         1 <0>         0.0000
     26 H12         3.3284    1.6677    0.0285 H         1 <0>         0.0000
     27 H13         2.0788    1.2752    1.2071 H         1 <0>         0.0000
     28 H14         1.7946   -1.1248    1.9188 H         1 <0>         0.0000
     29 H15         2.8519   -2.3201    1.1623 H         1 <0>         0.0000
@<TRIPOS>BOND
     1    1    3 ar
     2    1    2 ar
     3    1   15 1
     4    2    4 ar
     5    2   16 1
     6    3    5 ar
     7    3   17 1
     8    4    6 ar
     9    4   18 1
    10    5    6 ar
    11    5   19 1
    12    6    7 1
    13    7   13 am
    14    7   14 2
    15    8   10 1
    16    8    9 1
    17    8   20 1
    18    8   21 1
    19    9   11 1
    20    9   22 1
    21    9   23 1
    22   10   12 1
    23   10   24 1
    24   10   25 1
    25   11   13 1
    26   11   26 1
    27   11   27 1
    28   12   13 1
    29   12   28 1
    30   12   29 1
