@<TRIPOS>MOLECULE
*****
   27    28     0     0     0
SMALL
NO_CHARGES

@<TRIPOS>ATOM
      1 C1         -2.8164    3.1918    3.0879 C.ar      1 <0>         0.0000
      2 C2         -2.5866    2.1492    3.9938 C.ar      1 <0>         0.0000
      3 C3         -2.2589    3.1285    1.8098 C.ar      1 <0>         0.0000
      4 C4         -1.8012    1.0575    3.6244 C.ar      1 <0>         0.0000
      5 C5         -1.4868    2.0254    1.4258 C.ar      1 <0>         0.0000
      6 C6         -1.2535    0.9859    2.3349 C.ar      1 <0>         0.0000
      7 C7         -1.2189   -1.4100    1.8789 C.3       1 <0>         0.0000
      8 C8          0.4833   -0.0170    0.9053 C.3       1 <0>         0.0000
      9 C9         -0.2816   -2.6074    1.9616 C.3       1 <0>         0.0000
     10 C10         1.5066   -1.1455    0.9498 C.3       1 <0>         0.0000
     11 N1         -0.4590   -0.1688    2.0012 N.pl3     1 <0>         0.0000
     12 N2          0.7799   -2.4786    0.8813 N.4       1 <0>         0.0000
     13 H1         -3.4181    4.0472    3.3801 H         1 <0>         0.0000
     14 H2         -3.0025    2.1963    4.9963 H         1 <0>         0.0000
     15 H3         -2.4298    3.9332    1.1004 H         1 <0>         0.0000
     16 H4         -1.5896    0.2696    4.3431 H         1 <0>         0.0000
     17 H5         -1.0813    1.9924    0.4191 H         1 <0>         0.0000
     18 H6         -1.8010   -1.4500    0.9383 H         1 <0>         0.0000
     19 H7         -1.9351   -1.4884    2.6979 H         1 <0>         0.0000
     20 H8          1.0243    0.9255    1.0154 H         1 <0>         0.0000
     21 H9         -0.0015   -0.0038   -0.0895 H         1 <0>         0.0000
     22 H10         0.2495   -2.6275    2.9146 H         1 <0>         0.0000
     23 H11        -0.7996   -3.5550    1.8006 H         1 <0>         0.0000
     24 H12         2.2022   -1.1086    0.1089 H         1 <0>         0.0000
     25 H13         2.0571   -1.1412    1.8918 H         1 <0>         0.0000
     26 H14         0.3290   -2.5638   -0.0382 H         1 <0>         0.0000
     27 H15         1.4512   -3.2517    0.9498 H         1 <0>         0.0000
@<TRIPOS>BOND
     1    1    3 ar
     2    1    2 ar
     3    1   13 1
     4    2    4 ar
     5    2   14 1
     6    3    5 ar
     7    3   15 1
     8    4    6 ar
     9    4   16 1
    10    5    6 ar
    11    5   17 1
    12    6   11 1
    13    7    9 1
    14    7   11 1
    15    7   18 1
    16    7   19 1
    17    8   10 1
    18    8   11 1
    19    8   20 1
    20    8   21 1
    21    9   12 1
    22    9   22 1
    23    9   23 1
    24   10   12 1
    25   10   24 1
    26   10   25 1
    27   12   26 1
    28   12   27 1
