@<TRIPOS>MOLECULE
*****
   24    24     0     0     0
SMALL
NO_CHARGES

@<TRIPOS>ATOM
      1 C1          1.9366   -0.9318   -0.1726 C.ar      1 <0>         0.0000
      2 C2          0.8196   -0.4620    0.5229 C.ar      1 <0>         0.0000
      3 C3          2.9896   -1.5102    0.5394 C.ar      1 <0>         0.0000
      4 C4          0.7469   -0.5269    1.9195 C.ar      1 <0>         0.0000
      5 C5          1.8208   -1.0944    2.6462 C.ar      1 <0>         0.0000
      6 C6          2.9245   -1.6097    1.9284 C.ar      1 <0>         0.0000
      7 C7         -0.4638    0.0152    2.6459 C.3       1 <0>         0.0000
      8 C8          2.8911   -0.7248    4.8733 C.3       1 <0>         0.0000
      9 C9          3.6744   -3.5336    3.0720 C.3       1 <0>         0.0000
     10 N1          1.7708   -1.2063    4.0475 N.pl3     1 <0>         0.0000
     11 O1          3.9803   -2.2148    2.5963 O.3       1 <0>         0.0000
     12 H1          1.9820   -0.8561   -1.2554 H         1 <0>         0.0000
     13 H2         -0.0084   -0.0185   -0.0255 H         1 <0>         0.0000
     14 H3          3.8675   -1.9073    0.0372 H         1 <0>         0.0000
     15 H4         -1.0065   -0.7692    3.1901 H         1 <0>         0.0000
     16 H5         -0.1898    0.7906    3.3729 H         1 <0>         0.0000
     17 H6         -1.1690    0.4630    1.9416 H         1 <0>         0.0000
     18 H7          3.7381   -0.4554    4.2446 H         1 <0>         0.0000
     19 H8          3.2251   -1.4989    5.5739 H         1 <0>         0.0000
     20 H9          2.5958    0.1601    5.4507 H         1 <0>         0.0000
     21 H10         4.5694   -3.8904    3.5867 H         1 <0>         0.0000
     22 H11         3.4453   -4.1997    2.2304 H         1 <0>         0.0000
     23 H12         2.8269   -3.5168    3.7661 H         1 <0>         0.0000
     24 H13         0.8781   -0.9119    4.4187 H         1 <0>         0.0000
@<TRIPOS>BOND
     1    1    2 ar
     2    1    3 ar
     3    1   12 1
     4    2    4 ar
     5    2   13 1
     6    3    6 ar
     7    3   14 1
     8    4    5 ar
     9    4    7 1
    10    5    6 ar
    11    5   10 1
    12    6   11 1
    13    7   15 1
    14    7   16 1
    15    7   17 1
    16    8   10 1
    17    8   18 1
    18    8   19 1
    19    8   20 1
    20    9   11 1
    21    9   21 1
    22    9   22 1
    23    9   23 1
    24   10   24 1
