@<TRIPOS>MOLECULE
*****
   26    27     0     0     0
SMALL
NO_CHARGES

@<TRIPOS>ATOM
      1 C1          1.1047    7.1145    0.5270 C.ar      1 <0>         0.0000
      2 C2          0.5238    6.6345    1.7025 C.ar      1 <0>         0.0000
      3 C3          1.6021    6.2032   -0.4121 C.ar      1 <0>         0.0000
      4 C4          0.4369    5.2584    1.9364 C.ar      1 <0>         0.0000
      5 C5          1.5242    4.8295   -0.1828 C.ar      1 <0>         0.0000
      6 C6          0.9380    4.3460    0.9972 C.ar      1 <0>         0.0000
      7 C7          0.4586    2.0583    0.2892 C.2       1 <0>         0.0000
      8 C8          0.4815    0.5653    0.6071 C.3       1 <0>         0.0000
      9 C9          0.5234    0.1835    2.0871 C.3       1 <0>         0.0000
     10 C10         1.5323    1.0776    2.8028 C.3       1 <0>         0.0000
     11 C11         1.1032    2.5333    2.6719 C.3       1 <0>         0.0000
     12 N1          0.8924    2.9407    1.2686 N.am      1 <0>         0.0000
     13 O1          0.1194    2.4305   -0.8316 O.2       1 <0>         0.0000
     14 H1          1.1702    8.1836    0.3433 H         1 <0>         0.0000
     15 H2          0.1292    7.3278    2.4408 H         1 <0>         0.0000
     16 H3          2.0586    6.5634   -1.3305 H         1 <0>         0.0000
     17 H4         -0.0310    4.9033    2.8491 H         1 <0>         0.0000
     18 H5          1.9047    4.1308   -0.9174 H         1 <0>         0.0000
     19 H6         -0.3778    0.1310    0.0906 H         1 <0>         0.0000
     20 H7          1.3725    0.1766    0.0975 H         1 <0>         0.0000
     21 H8         -0.4669    0.3191    2.5404 H         1 <0>         0.0000
     22 H9          0.7807   -0.8754    2.1964 H         1 <0>         0.0000
     23 H10         1.6022    0.8307    3.8677 H         1 <0>         0.0000
     24 H11         2.5304    0.9437    2.3678 H         1 <0>         0.0000
     25 H12         0.1800    2.6846    3.2489 H         1 <0>         0.0000
     26 H13         1.8617    3.1975    3.0942 H         1 <0>         0.0000
@<TRIPOS>BOND
     1    1    3 ar
     2    1    2 ar
     3    1   14 1
     4    2    4 ar
     5    2   15 1
     6    3    5 ar
     7    3   16 1
     8    4    6 ar
     9    4   17 1
    10    5    6 ar
    11    5   18 1
    12    6   12 1
    13    7    8 1
    14    7   12 am
    15    7   13 2
    16    8    9 1
    17    8   19 1
    18    8   20 1
    19    9   10 1
    20    9   21 1
    21    9   22 1
    22   10   11 1
    23   10   23 1
    24   10   24 1
    25   11   12 1
    26   11   25 1
    27   11   26 1
