@<TRIPOS>MOLECULE
*****
   24    24     0     0     0
SMALL
NO_CHARGES

@<TRIPOS>ATOM
      1 C1          2.9542    3.1342   -4.6949 C.2       1 <0>         0.0000
      2 C2          3.9862    3.5698   -3.8735 C.2       1 <0>         0.0000
      3 C3          2.1692    2.2258   -3.9245 C.2       1 <0>         0.0000
      4 C4          2.7497    2.1126   -2.6586 C.2       1 <0>         0.0000
      5 C5          2.3171    1.3647   -1.4695 C.2       1 <0>         0.0000
      6 C6          2.8902    0.4177    0.6841 C.3       1 <0>         0.0000
      7 C7          4.5662    0.3610   -1.0981 C.3       1 <0>         0.0000
      8 C8          0.6144    1.7569   -5.6314 C.3       1 <0>         0.0000
      9 N1          3.8729    2.9385   -2.6691 N.pl3     1 <0>         0.0000
     10 N2          3.3380    0.9774   -0.5895 N.am      1 <0>         0.0000
     11 O1          1.1300    1.1655   -1.2121 O.2       1 <0>         0.0000
     12 O2          1.0718    1.5244   -4.3032 O.3       1 <0>         0.0000
     13 H1          2.7974    3.4375   -5.7203 H         1 <0>         0.0000
     14 H2          4.7733    4.2864   -4.0646 H         1 <0>         0.0000
     15 H3          2.5540   -0.6233    0.5788 H         1 <0>         0.0000
     16 H4          2.0570    1.0049    1.0696 H         1 <0>         0.0000
     17 H5          3.7222    0.4511    1.3946 H         1 <0>         0.0000
     18 H6          5.4183    0.6319   -0.4639 H         1 <0>         0.0000
     19 H7          4.7706    0.6839   -2.1179 H         1 <0>         0.0000
     20 H8          4.4771   -0.7354   -1.0995 H         1 <0>         0.0000
     21 H9         -0.2707    1.1323   -5.7593 H         1 <0>         0.0000
     22 H10         1.3738    1.4703   -6.3706 H         1 <0>         0.0000
     23 H11         0.3418    2.8096   -5.7786 H         1 <0>         0.0000
     24 H12         4.3988    3.1618   -1.8356 H         1 <0>         0.0000
@<TRIPOS>BOND
     1    1    2 2
     2    1    3 1
     3    1   13 1
     4    2    9 1
     5    2   14 1
     6    3    4 2
     7    3   12 1
     8    4    5 1
     9    4    9 1
    10    5   10 am
    11    5   11 2
    12    6   10 1
    13    6   15 1
    14    6   16 1
    15    6   17 1
    16    7   10 1
    17    7   18 1
    18    7   19 1
    19    7   20 1
    20    8   12 1
    21    8   21 1
    22    8   22 1
    23    8   23 1
    24    9   24 1
