@<TRIPOS>MOLECULE
*****
   26    27     0     0     0
SMALL
NO_CHARGES

@<TRIPOS>ATOM
      1 C1          1.5451   -2.3572   -0.2815 C.ar      1 <0>         0.0000
      2 C2          1.5554   -0.9595   -0.2142 C.ar      1 <0>         0.0000
      3 C3          2.6737   -3.0646    0.1221 C.ar      1 <0>         0.0000
      4 C4          2.6883   -0.2918    0.2421 C.ar      1 <0>         0.0000
      5 C5          3.8353   -2.4140    0.5780 C.ar      1 <0>         0.0000
      6 C6          3.8396   -0.9983    0.6369 C.ar      1 <0>         0.0000
      7 C7          5.0042   -3.2221    1.0187 C.2       1 <0>         0.0000
      8 C8          6.2560   -0.4826    0.7546 C.2       1 <0>         0.0000
      9 C9          6.4937   -1.7494   -0.0557 C.3       1 <0>         0.0000
     10 C10         4.7350   -4.4685    1.8312 C.3       1 <0>         0.0000
     11 C11         4.6845    0.9555    1.9203 C.3       1 <0>         0.0000
     12 N1          6.2271   -2.9317    0.7569 N.2       1 <0>         0.0000
     13 N2          4.9401   -0.2668    1.1496 N.am      1 <0>         0.0000
     14 O1          7.1539    0.2902    1.0652 O.2       1 <0>         0.0000
     15 H1          0.6671   -2.8863   -0.6407 H         1 <0>         0.0000
     16 H2          0.6838   -0.3883   -0.5224 H         1 <0>         0.0000
     17 H3          2.6630   -4.1492    0.0791 H         1 <0>         0.0000
     18 H4          2.6889    0.7923    0.2827 H         1 <0>         0.0000
     19 H5          5.8705   -1.7221   -0.9617 H         1 <0>         0.0000
     20 H6          7.5435   -1.7458   -0.3477 H         1 <0>         0.0000
     21 H7          4.2314   -5.2347    1.2312 H         1 <0>         0.0000
     22 H8          4.0859   -4.2488    2.6854 H         1 <0>         0.0000
     23 H9          5.6836   -4.8764    2.1831 H         1 <0>         0.0000
     24 H10         5.5299    1.1204    2.5876 H         1 <0>         0.0000
     25 H11         3.7710    0.8259    2.5028 H         1 <0>         0.0000
     26 H12         4.5878    1.8364    1.2754 H         1 <0>         0.0000
@<TRIPOS>BOND
     1    1    2 ar
     2    1    3 ar
     3    1   15 1
     4    2    4 ar
     5    2   16 1
     6    3    5 ar
     7    3   17 1
     8    4    6 ar
     9    4   18 1
    10    5    6 ar
    11    5    7 1
    12    6   13 1
    13    7   10 1
    14    7   12 2
    15    8    9 1
    16    8   13 am
    17    8   14 2
    18    9   12 1
    19    9   19 1
    20    9   20 1
    21   10   21 1
    22   10   22 1
    23   10   23 1
    24   11   13 1
    25   11   24 1
    26   11   25 1
    27   11   26 1
