@<TRIPOS>MOLECULE
*****
   22    22     0     0     0
SMALL
NO_CHARGES

@<TRIPOS>ATOM
      1 C1         -1.3547   -1.2337   -0.7381 C.2       1 <0>         0.0000
      2 C2         -1.7267   -2.4455   -1.3952 C.2       1 <0>         0.0000
      3 C3         -0.3528   -1.2050    0.1937 C.2       1 <0>         0.0000
      4 C4         -1.0451   -3.5894   -1.0842 C.2       1 <0>         0.0000
      5 C5          0.3745   -2.4083    0.5648 C.2       1 <0>         0.0000
      6 C6         -1.3889   -4.9129   -1.7151 C.2       1 <0>         0.0000
      7 C7         -0.6726   -7.0713   -2.5401 C.3       1 <0>         0.0000
      8 C8          0.9557   -5.2198   -2.5270 C.3       1 <0>         0.0000
      9 N1         -0.0470   -3.5523   -0.1432 N.am      1 <0>         0.0000
     10 N2         -0.3364   -5.7307   -2.0617 N.am      1 <0>         0.0000
     11 O1          1.2761   -2.4986    1.4009 O.2       1 <0>         0.0000
     12 O2         -2.5664   -5.2467   -1.8349 O.2       1 <0>         0.0000
     13 H1         -1.8827   -0.3162   -0.9870 H         1 <0>         0.0000
     14 H2         -2.5293   -2.4872   -2.1213 H         1 <0>         0.0000
     15 H3         -0.0629   -0.2921    0.7029 H         1 <0>         0.0000
     16 H4         -0.9207   -7.0648   -3.6094 H         1 <0>         0.0000
     17 H5         -1.5329   -7.4497   -1.9893 H         1 <0>         0.0000
     18 H6          0.1874   -7.7274   -2.3789 H         1 <0>         0.0000
     19 H7          1.7766   -5.7759   -2.0619 H         1 <0>         0.0000
     20 H8          1.0720   -4.1636   -2.2911 H         1 <0>         0.0000
     21 H9          1.0324   -5.3360   -3.6157 H         1 <0>         0.0000
     22 H10         0.4231   -4.4125    0.1239 H         1 <0>         0.0000
@<TRIPOS>BOND
     1    1    3 2
     2    1    2 1
     3    1   13 1
     4    2    4 2
     5    2   14 1
     6    3    5 1
     7    3   15 1
     8    4    6 1
     9    4    9 1
    10    5    9 am
    11    5   11 2
    12    6   10 am
    13    6   12 2
    14    7   10 1
    15    7   16 1
    16    7   17 1
    17    7   18 1
    18    8   10 1
    19    8   19 1
    20    8   20 1
    21    8   21 1
    22    9   22 1
