@<TRIPOS>MOLECULE
*****
   22    23     0     0     0
SMALL
NO_CHARGES

@<TRIPOS>ATOM
      1 C1          1.8913   -1.0138   -0.0982 C.ar      1 <0>         0.0000
      2 C2          2.8636   -1.6863    0.6490 C.ar      1 <0>         0.0000
      3 C3          0.8365   -0.3634    0.5532 C.ar      1 <0>         0.0000
      4 C4          2.7908   -1.6968    2.0442 C.ar      1 <0>         0.0000
      5 C5          0.7568   -0.3810    1.9454 C.ar      1 <0>         0.0000
      6 C6          3.7616   -1.2573    8.2283 C.2       1 <0>         0.0000
      7 C7          2.4304   -1.4942    8.3537 C.2       1 <0>         0.0000
      8 C8          1.7403   -1.0364    2.7019 C.ar      1 <0>         0.0000
      9 C9          2.9335   -1.2463    6.2723 C.2       1 <0>         0.0000
     10 C10         1.5849   -1.0138    4.1928 C.2       1 <0>         0.0000
     11 N1          4.0787   -1.0967    6.8790 N.2       1 <0>         0.0000
     12 N2          2.7701   -1.2279    4.8994 N.am      1 <0>         0.0000
     13 O1          0.5117   -0.8190    4.7437 O.2       1 <0>         0.0000
     14 O2          1.8815   -1.4939    7.0803 O.3       1 <0>         0.0000
     15 H1          1.9508   -1.0040   -1.1834 H         1 <0>         0.0000
     16 H2          3.6725   -2.2096    0.1465 H         1 <0>         0.0000
     17 H3          0.0759    0.1536   -0.0256 H         1 <0>         0.0000
     18 H4          3.5338   -2.2581    2.6049 H         1 <0>         0.0000
     19 H5         -0.0605    0.1060    2.4681 H         1 <0>         0.0000
     20 H6          4.5145   -1.1844    9.0011 H         1 <0>         0.0000
     21 H7          1.7432   -1.6598    9.1688 H         1 <0>         0.0000
     22 H8          3.6508   -1.1385    4.4083 H         1 <0>         0.0000
@<TRIPOS>BOND
     1    1    3 ar
     2    1    2 ar
     3    1   15 1
     4    2    4 ar
     5    2   16 1
     6    3    5 ar
     7    3   17 1
     8    4    8 ar
     9    4   18 1
    10    5    8 ar
    11    5   19 1
    12    6    7 2
    13    6   11 1
    14    6   20 1
    15    7   14 1
    16    7   21 1
    17    8   10 1
    18    9   11 2
    19    9   12 1
    20    9   14 1
    21   10   12 am
    22   10   13 2
    23   12   22 1
