@<TRIPOS>MOLECULE
*****
   21    21     0     0     0
SMALL
NO_CHARGES

@<TRIPOS>ATOM
      1 C1          2.0064   -1.2633   -6.4438 C.2       1 <0>         0.0000
      2 C2          1.2897   -1.3833   -5.2161 C.2       1 <0>         0.0000
      3 C3          2.2335    0.0467   -6.7935 C.2       1 <0>         0.0000
      4 C4          0.9928   -0.1568   -4.6732 C.2       1 <0>         0.0000
      5 C5          2.4322   -0.6543   -1.8254 C.3       1 <0>         0.0000
      6 C6          0.7534    0.8401   -0.6079 C.3       1 <0>         0.0000
      7 C7          1.4407    0.5012   -1.9334 C.3       1 <0>         0.0000
      8 O1         -0.7070    1.3183   -3.3061 O.2       1 <0>         0.0000
      9 O2         -0.4830   -1.1821   -2.7724 O.2       1 <0>         0.0000
     10 S1          1.5656    1.1599   -5.6508 S.3       1 <0>         0.0000
     11 S2          0.1176    0.1092   -3.1478 S.o2      1 <0>         0.0000
     12 H1          2.3319   -2.1065   -7.0438 H         1 <0>         0.0000
     13 H2          0.9888   -2.3141   -4.7480 H         1 <0>         0.0000
     14 H3          2.7414    0.4232   -7.6731 H         1 <0>         0.0000
     15 H4          1.9265   -1.5642   -1.4904 H         1 <0>         0.0000
     16 H5          2.9277   -0.8585   -2.7780 H         1 <0>         0.0000
     17 H6          3.2025   -0.3975   -1.0911 H         1 <0>         0.0000
     18 H7          0.2329   -0.0342   -0.2072 H         1 <0>         0.0000
     19 H8          0.0351    1.6543   -0.7274 H         1 <0>         0.0000
     20 H9          1.5134    1.1502    0.1161 H         1 <0>         0.0000
     21 H10         1.9200    1.3932   -2.3502 H         1 <0>         0.0000
@<TRIPOS>BOND
     1    1    2 1
     2    1    3 2
     3    1   12 1
     4    2    4 2
     5    2   13 1
     6    3   10 1
     7    3   14 1
     8    4   10 1
     9    4   11 1
    10    5    7 1
    11    5   15 1
    12    5   16 1
    13    5   17 1
    14    6    7 1
    15    6   18 1
    16    6   19 1
    17    6   20 1
    18    7   11 1
    19    7   21 1
    20    8   11 2
    21    9   11 2
