@<TRIPOS>MOLECULE
*****
   31    33     0     0     0
SMALL
NO_CHARGES

@<TRIPOS>ATOM
      1 C1          2.6289   -4.6435    5.9614 C.ar      1 <0>         0.0000
      2 C2          2.9448   -4.3744    4.6191 C.ar      1 <0>         0.0000
      3 C3          1.9076   -3.7037    6.6803 C.ar      1 <0>         0.0000
      4 C4          2.5458   -3.1902    4.0132 C.ar      1 <0>         0.0000
      5 C5          0.3373   -0.3260    6.2349 C.2       1 <0>         0.0000
      6 C6          0.6753   -0.1277    4.9330 C.2       1 <0>         0.0000
      7 C7          1.4899   -2.4958    6.0940 C.ar      1 <0>         0.0000
      8 C8          1.8089   -2.2235    4.7370 C.ar      1 <0>         0.0000
      9 C9          0.7208   -1.5390    6.9291 C.2       1 <0>         0.0000
     10 C10         2.3351    0.9603    1.0836 C.3       1 <0>         0.0000
     11 C11         1.0016    0.2811    0.6338 C.3       1 <0>         0.0000
     12 C12         2.4947    0.6412    2.5856 C.3       1 <0>         0.0000
     13 C13         0.4267   -0.4099    1.8889 C.3       1 <0>         0.0000
     14 C14         1.6672   -0.6433    2.7691 C.3       1 <0>         0.0000
     15 N1          1.3858   -1.0152    4.1659 N.pl3     1 <0>         0.0000
     16 O1          0.4385   -1.7701    8.1147 O.2       1 <0>         0.0000
     17 H1          2.9465   -5.5734    6.4245 H         1 <0>         0.0000
     18 H2          3.5099   -5.0977    4.0368 H         1 <0>         0.0000
     19 H3          1.6370   -3.8611    7.7201 H         1 <0>         0.0000
     20 H4          2.8171   -3.0361    2.9769 H         1 <0>         0.0000
     21 H5         -0.2278    0.4290    6.7703 H         1 <0>         0.0000
     22 H6          0.3825    0.7837    4.4249 H         1 <0>         0.0000
     23 H7          3.1771    0.5526    0.5161 H         1 <0>         0.0000
     24 H8          2.3283    2.0384    0.9034 H         1 <0>         0.0000
     25 H9          0.2939    1.0016    0.2156 H         1 <0>         0.0000
     26 H10         1.1988   -0.4564   -0.1501 H         1 <0>         0.0000
     27 H11         3.5354    0.5081    2.8943 H         1 <0>         0.0000
     28 H12         2.0756    1.4472    3.1967 H         1 <0>         0.0000
     29 H13        -0.2785    0.2513    2.4029 H         1 <0>         0.0000
     30 H14        -0.1033   -1.3410    1.6691 H         1 <0>         0.0000
     31 H15         2.2313   -1.4569    2.3217 H         1 <0>         0.0000
@<TRIPOS>BOND
     1    1    2 ar
     2    1    3 ar
     3    1   17 1
     4    2    4 ar
     5    2   18 1
     6    3    7 ar
     7    3   19 1
     8    4    8 ar
     9    4   20 1
    10    5    6 2
    11    5    9 1
    12    5   21 1
    13    6   15 1
    14    6   22 1
    15    7    8 ar
    16    7    9 1
    17    8   15 1
    18    9   16 2
    19   10   11 1
    20   10   12 1
    21   10   23 1
    22   10   24 1
    23   11   13 1
    24   11   25 1
    25   11   26 1
    26   12   14 1
    27   12   27 1
    28   12   28 1
    29   13   14 1
    30   13   29 1
    31   13   30 1
    32   14   15 1
    33   14   31 1
