@<TRIPOS>MOLECULE
*****
   13    13     0     0     0
SMALL
NO_CHARGES

@<TRIPOS>ATOM
      1 C1          1.8849   -0.7127   -1.0728 C.2       1 <0>         0.0000
      2 C2          0.7335   -0.7365   -0.3006 C.2       1 <0>         0.0000
      3 C3          1.3520   -2.7899   -0.8589 C.2       1 <0>         0.0000
      4 C4          1.3906   -4.2328   -0.9844 C.2       1 <0>         0.0000
      5 N1          2.2597   -1.9832   -1.4134 N.2       1 <0>         0.0000
      6 N2          0.5991   -5.1356   -0.5155 N.2       1 <0>         0.0000
      7 N3          0.4080   -2.0621   -0.1728 N.pl3     1 <0>         0.0000
      8 O1         -0.4656   -4.5708    0.2374 O.3       1 <0>         0.0000
      9 H1          2.4512    0.1525   -1.3929 H         1 <0>         0.0000
     10 H2          0.1452    0.0505    0.1497 H         1 <0>         0.0000
     11 H3          2.2199   -4.6241   -1.5680 H         1 <0>         0.0000
     12 H4         -0.3729   -2.4775    0.3205 H         1 <0>         0.0000
     13 H5         -0.9627   -5.3561    0.5171 H         1 <0>         0.0000
@<TRIPOS>BOND
     1    1    2 2
     2    1    5 1
     3    1    9 1
     4    2    7 1
     5    2   10 1
     6    3    4 1
     7    3    5 2
     8    3    7 1
     9    4    6 2
    10    4   11 1
    11    6    8 1
    12    7   12 1
    13    8   13 1
