@<TRIPOS>MOLECULE
*****
   16    16     0     0     0
SMALL
NO_CHARGES

@<TRIPOS>ATOM
      1 C1          0.1515    1.3107   -2.9224 C.2       1 <0>         0.0000
      2 C2          0.2150    0.4598   -0.9792 C.2       1 <0>         0.0000
      3 C3          0.1881    2.3263   -4.0179 C.3       1 <0>         0.0000
      4 C4          0.2830    0.1893    0.4939 C.3       1 <0>         0.0000
      5 N1          0.3165    1.6311   -1.5954 N.2       1 <0>         0.0000
      6 N2         -0.0369    0.0121   -3.1515 N.2       1 <0>         0.0000
      7 N3          0.0046   -0.5132   -1.8934 N.pl3     1 <0>         0.0000
      8 N4          0.6420   -1.2207    0.7270 N.3       1 <0>         0.0000
      9 H1          1.1495    2.8496   -4.0245 H         1 <0>         0.0000
     10 H2          0.0393    1.8421   -4.9850 H         1 <0>         0.0000
     11 H3         -0.5937    3.0782   -3.8709 H         1 <0>         0.0000
     12 H4          0.9617    0.9241    0.9474 H         1 <0>         0.0000
     13 H5         -0.7081    0.3627    0.9287 H         1 <0>         0.0000
     14 H6         -0.0972   -1.5057   -1.7210 H         1 <0>         0.0000
     15 H7          0.4472   -1.4726    1.6934 H         1 <0>         0.0000
     16 H8          1.6426   -1.3503    0.5860 H         1 <0>         0.0000
@<TRIPOS>BOND
     1    1    3 1
     2    1    5 1
     3    1    6 2
     4    2    4 1
     5    2    5 2
     6    2    7 1
     7    3    9 1
     8    3   10 1
     9    3   11 1
    10    4    8 1
    11    4   12 1
    12    4   13 1
    13    6    7 1
    14    7   14 1
    15    8   15 1
    16    8   16 1
