@<TRIPOS>MOLECULE
*****
   41    42     0     0     0
SMALL
NO_CHARGES

@<TRIPOS>ATOM
      1 C1         -0.3569    0.9846   -1.7050 C.2       1 <0>         0.0000
      2 C2          2.9208    0.7080    0.6150 C.3       1 <0>         0.0000
      3 C3          2.6941   -0.8077    0.7702 C.3       1 <0>         0.0000
      4 C4          1.5279    1.3407    0.8187 C.3       1 <0>         0.0000
      5 C5          1.3168   -1.0317    0.1306 C.3       1 <0>         0.0000
      6 C6         -2.1157   -1.0264    0.6362 C.3       1 <0>         0.0000
      7 C7         -1.9753    0.3409   -0.0281 C.3       1 <0>         0.0000
      8 C8         -0.2296   -0.0883    1.8963 C.3       1 <0>         0.0000
      9 C9          0.4822    0.2060    0.5608 C.3       1 <0>         0.0000
     10 C10         0.9390    2.9238   -3.6282 C.3       1 <0>         0.0000
     11 C11         2.9443    1.4733   -3.1885 C.3       1 <0>         0.0000
     12 C12         0.9585    0.4901   -4.3750 C.3       1 <0>         0.0000
     13 C13         1.4200    1.5023   -3.3221 C.3       1 <0>         0.0000
     14 N1         -1.1910   -1.1866    1.7786 N.3       1 <0>         0.0000
     15 N2         -0.5785    0.5666   -0.4186 N.am      1 <0>         0.0000
     16 O1         -1.2525    1.2401   -2.5069 O.2       1 <0>         0.0000
     17 O2          0.9710    1.0852   -1.9822 O.3       1 <0>         0.0000
     18 H1          3.6667    1.1004    1.3135 H         1 <0>         0.0000
     19 H2          3.2746    0.9177   -0.3971 H         1 <0>         0.0000
     20 H3          3.4804   -1.4047    0.2974 H         1 <0>         0.0000
     21 H4          2.6745   -1.0854    1.8312 H         1 <0>         0.0000
     22 H5          1.4150    1.7078    1.8451 H         1 <0>         0.0000
     23 H6          1.3613    2.1897    0.1563 H         1 <0>         0.0000
     24 H7          1.4121   -1.0422   -0.9567 H         1 <0>         0.0000
     25 H8          0.8319   -1.9590    0.4458 H         1 <0>         0.0000
     26 H9         -3.1530   -1.1659    0.9608 H         1 <0>         0.0000
     27 H10        -1.9030   -1.7990   -0.1142 H         1 <0>         0.0000
     28 H11        -2.5841    0.3934   -0.9292 H         1 <0>         0.0000
     29 H12        -2.3155    1.1375    0.6461 H         1 <0>         0.0000
     30 H13         0.5344   -0.3741    2.6260 H         1 <0>         0.0000
     31 H14        -0.6773    0.8528    2.2581 H         1 <0>         0.0000
     32 H15        -0.1439    2.9588   -3.7448 H         1 <0>         0.0000
     33 H16         1.2320    3.6036   -2.8213 H         1 <0>         0.0000
     34 H17         1.4079    3.2739   -4.5540 H         1 <0>         0.0000
     35 H18         3.2898    0.4719   -2.9151 H         1 <0>         0.0000
     36 H19         3.2800    2.1780   -2.4221 H         1 <0>         0.0000
     37 H20         3.4073    1.7517   -4.1400 H         1 <0>         0.0000
     38 H21         1.2747   -0.5196   -4.0929 H         1 <0>         0.0000
     39 H22        -0.1254    0.5036   -4.4877 H         1 <0>         0.0000
     40 H23         1.4182    0.7333   -5.3388 H         1 <0>         0.0000
     41 H24        -1.7090   -1.2740    2.6470 H         1 <0>         0.0000
@<TRIPOS>BOND
     1    1   15 am
     2    1   16 2
     3    1   17 1
     4    2    3 1
     5    2    4 1
     6    2   18 1
     7    2   19 1
     8    3    5 1
     9    3   20 1
    10    3   21 1
    11    4    9 1
    12    4   22 1
    13    4   23 1
    14    5    9 1
    15    5   24 1
    16    5   25 1
    17    6    7 1
    18    6   14 1
    19    6   26 1
    20    6   27 1
    21    7   15 1
    22    7   28 1
    23    7   29 1
    24    8    9 1
    25    8   14 1
    26    8   30 1
    27    8   31 1
    28    9   15 1
    29   10   13 1
    30   10   32 1
    31   10   33 1
    32   10   34 1
    33   11   13 1
    34   11   35 1
    35   11   36 1
    36   11   37 1
    37   12   13 1
    38   12   38 1
    39   12   39 1
    40   12   40 1
    41   13   17 1
    42   14   41 1
