@<TRIPOS>MOLECULE
*****
   23    24     0     0     0
SMALL
NO_CHARGES

@<TRIPOS>ATOM
      1 C1         -1.1590   -1.0278   -4.3883 C.2       1 <0>         0.0000
      2 C2         -2.0623   -1.6515   -3.4794 C.2       1 <0>         0.0000
      3 C3          0.0639   -0.7608   -3.8236 C.2       1 <0>         0.0000
      4 C4         -7.6513   -2.3892    0.2571 C.2       1 <0>         0.0000
      5 C5         -1.5154   -1.8593   -2.2218 C.2       1 <0>         0.0000
      6 C6         -7.7206   -1.5442   -0.8144 C.2       1 <0>         0.0000
      7 C7         -5.5672   -2.0429   -0.9251 C.2       1 <0>         0.0000
      8 C8         -2.0624   -2.4926   -1.0281 C.2       1 <0>         0.0000
      9 C9         -8.9468   -0.8312   -1.3027 C.3       1 <0>         0.0000
     10 N1         -6.5205   -1.3530   -1.4876 N.2       1 <0>         0.0000
     11 N2         -3.2980   -2.6031   -0.6589 N.2       1 <0>         0.0000
     12 N3         -4.2769   -2.0614   -1.4262 N.pl3     1 <0>         0.0000
     13 S1          0.1345   -1.2720   -2.1746 S.3       1 <0>         0.0000
     14 S2         -6.0215   -2.9915    0.4752 S.3       1 <0>         0.0000
     15 H1         -1.4036   -0.7938   -5.4191 H         1 <0>         0.0000
     16 H2         -3.0482   -1.9977   -3.7691 H         1 <0>         0.0000
     17 H3          0.9234   -0.2884   -4.2820 H         1 <0>         0.0000
     18 H4         -8.4441   -2.6884    0.9299 H         1 <0>         0.0000
     19 H5         -1.3553   -2.9311   -0.3270 H         1 <0>         0.0000
     20 H6         -8.7935    0.2532   -1.2832 H         1 <0>         0.0000
     21 H7         -9.1670   -1.1114   -2.3384 H         1 <0>         0.0000
     22 H8         -9.8149   -1.0718   -0.6841 H         1 <0>         0.0000
     23 H9         -4.0628   -1.3122   -2.0851 H         1 <0>         0.0000
@<TRIPOS>BOND
     1    1    2 1
     2    1    3 2
     3    1   15 1
     4    2    5 2
     5    2   16 1
     6    3   13 1
     7    3   17 1
     8    4    6 2
     9    4   14 1
    10    4   18 1
    11    5    8 1
    12    5   13 1
    13    6    9 1
    14    6   10 1
    15    7   10 2
    16    7   12 1
    17    7   14 1
    18    8   11 2
    19    8   19 1
    20    9   20 1
    21    9   21 1
    22    9   22 1
    23   11   12 1
    24   12   23 1
