@<TRIPOS>MOLECULE
*****
   16    16     0     0     0
SMALL
NO_CHARGES

@<TRIPOS>ATOM
      1 C1          0.1855    1.2454   -2.9347 C.2       1 <0>         0.0000
      2 C2         -0.0369    0.2469   -1.0698 C.2       1 <0>         0.0000
      3 C3          0.5932    2.2711   -3.9416 C.3       1 <0>         0.0000
      4 C4         -0.0234   -0.1588    0.3728 C.3       1 <0>         0.0000
      5 N1          0.5038    1.3345   -1.6020 N.2       1 <0>         0.0000
      6 N2         -0.5182    0.1615   -3.2565 N.2       1 <0>         0.0000
      7 N3         -0.6503   -0.4643   -2.0515 N.pl3     1 <0>         0.0000
      8 N4         -1.2609    0.2651    1.0547 N.3       1 <0>         0.0000
      9 H1          1.6827    2.3720   -3.9659 H         1 <0>         0.0000
     10 H2          0.2384    1.9874   -4.9342 H         1 <0>         0.0000
     11 H3          0.1784    3.2495   -3.6796 H         1 <0>         0.0000
     12 H4          0.1755   -1.2418    0.4398 H         1 <0>         0.0000
     13 H5          0.8171    0.3591    0.8395 H         1 <0>         0.0000
     14 H6         -1.1362   -1.3504   -1.9997 H         1 <0>         0.0000
     15 H7         -1.1855    0.0554    2.0488 H         1 <0>         0.0000
     16 H8         -2.0565   -0.2648    0.7033 H         1 <0>         0.0000
@<TRIPOS>BOND
     1    1    3 1
     2    1    5 1
     3    1    6 2
     4    2    4 1
     5    2    5 2
     6    2    7 1
     7    3    9 1
     8    3   10 1
     9    3   11 1
    10    4    8 1
    11    4   12 1
    12    4   13 1
    13    6    7 1
    14    7   14 1
    15    8   15 1
    16    8   16 1
