@<TRIPOS>MOLECULE
*****
   13    13     0     0     0
SMALL
NO_CHARGES

@<TRIPOS>ATOM
      1 C1          1.8788   -0.6143   -0.7741 C.2       1 <0>         0.0000
      2 C2          0.5757   -0.7534   -0.3313 C.2       1 <0>         0.0000
      3 C3          1.4264   -2.7148   -0.9632 C.2       1 <0>         0.0000
      4 C4          1.4043   -4.1500   -1.1951 C.2       1 <0>         0.0000
      5 N1          2.3940   -1.8234   -1.1604 N.2       1 <0>         0.0000
      6 N2          2.3043   -4.9519   -1.6509 N.2       1 <0>         0.0000
      7 N3          0.2973   -2.0937   -0.4556 N.pl3     1 <0>         0.0000
      8 O1          3.5015   -4.3184   -1.9731 O.3       1 <0>         0.0000
      9 H1          2.4651    0.2940   -0.8321 H         1 <0>         0.0000
     10 H2         -0.1468   -0.0435    0.0457 H         1 <0>         0.0000
     11 H3          0.4750   -4.6624   -0.9482 H         1 <0>         0.0000
     12 H4         -0.5777   -2.5426   -0.2176 H         1 <0>         0.0000
     13 H5          4.0468   -5.0572   -2.2916 H         1 <0>         0.0000
@<TRIPOS>BOND
     1    1    2 2
     2    1    5 1
     3    1    9 1
     4    2    7 1
     5    2   10 1
     6    3    4 1
     7    3    5 2
     8    3    7 1
     9    4    6 2
    10    4   11 1
    11    6    8 1
    12    7   12 1
    13    8   13 1
