@<TRIPOS>MOLECULE
*****
   29    30     0     0     0
SMALL
NO_CHARGES

@<TRIPOS>ATOM
      1 C1          3.0155   -2.7992    2.7403 C.1       1 <0>         0.0000
      2 C2         -5.1782    0.4442    1.8781 C.2       1 <0>         0.0000
      3 C3          1.7898   -3.2634    3.2757 C.2       1 <0>         0.0000
      4 C4         -2.7925    0.1893    1.4601 C.2       1 <0>         0.0000
      5 C5         -3.3399    1.4096    1.0966 C.2       1 <0>         0.0000
      6 C6          0.5389   -2.7679    2.9689 C.2       1 <0>         0.0000
      7 C7          0.3658   -4.3833    4.4206 C.2       1 <0>         0.0000
      8 C8         -1.4220   -0.3131    1.3610 C.2       1 <0>         0.0000
      9 C9         -2.6330    2.6088    0.5232 C.3       1 <0>         0.0000
     10 C10        -0.3953   -5.2850    5.3228 C.3       1 <0>         0.0000
     11 C11        -0.4692    0.2280    0.3195 C.3       1 <0>         0.0000
     12 N1          3.9769   -2.3526    2.2487 N.1       1 <0>         0.0000
     13 N2         -4.6951    1.5303    1.3383 N.2       1 <0>         0.0000
     14 N3          1.6362   -4.3015    4.2071 N.2       1 <0>         0.0000
     15 N4         -1.1147   -1.2780    2.1723 N.2       1 <0>         0.0000
     16 N5          0.1421   -1.8082    2.0829 N.pl3     1 <0>         0.0000
     17 O1         -0.3791   -3.4596    3.6794 O.3       1 <0>         0.0000
     18 S1         -4.0357   -0.8295    2.1559 S.3       1 <0>         0.0000
     19 H1         -6.2216    0.3275    2.1533 H         1 <0>         0.0000
     20 H2         -2.6073    2.5761   -0.5726 H         1 <0>         0.0000
     21 H3         -3.1846    3.5071    0.8086 H         1 <0>         0.0000
     22 H4         -1.6079    2.7010    0.8870 H         1 <0>         0.0000
     23 H5         -0.9544   -4.7097    6.0678 H         1 <0>         0.0000
     24 H6         -1.1122   -5.8899    4.7583 H         1 <0>         0.0000
     25 H7          0.3084   -5.9440    5.8322 H         1 <0>         0.0000
     26 H8          0.3276    0.8348    0.7685 H         1 <0>         0.0000
     27 H9          0.0041   -0.6017   -0.2192 H         1 <0>         0.0000
     28 H10        -0.9819    0.8418   -0.4173 H         1 <0>         0.0000
     29 H11         0.8975   -1.3010    1.6266 H         1 <0>         0.0000
@<TRIPOS>BOND
     1    1    3 1
     2    1   12 3
     3    2   13 2
     4    2   18 1
     5    2   19 1
     6    3    6 2
     7    3   14 1
     8    4    5 2
     9    4    8 1
    10    4   18 1
    11    5    9 1
    12    5   13 1
    13    6   16 1
    14    6   17 1
    15    7   10 1
    16    7   14 2
    17    7   17 1
    18    8   11 1
    19    8   15 2
    20    9   20 1
    21    9   21 1
    22    9   22 1
    23   10   23 1
    24   10   24 1
    25   10   25 1
    26   11   26 1
    27   11   27 1
    28   11   28 1
    29   15   16 1
    30   16   29 1
