@<TRIPOS>MOLECULE
*****
   31    33     0     0     0
SMALL
NO_CHARGES

@<TRIPOS>ATOM
      1 C1         -8.3272    2.6835    0.5255 C.1       1 <0>         0.0000
      2 C2         -1.2574   -1.0019    0.8172 C.ar      1 <0>         0.0000
      3 C3         -0.0552   -0.4931    1.2999 C.ar      1 <0>         0.0000
      4 C4         -1.2286    1.0308    2.8264 C.ar      1 <0>         0.0000
      5 C5         -4.5980   -0.0129    1.8388 C.2       1 <0>         0.0000
      6 C6         -8.3874    3.2010    1.8419 C.2       1 <0>         0.0000
      7 C7         -2.4501    0.5203    2.3515 C.ar      1 <0>         0.0000
      8 C8         -3.8369    0.8195    2.6562 C.2       1 <0>         0.0000
      9 C9         -2.4432   -0.4879    1.3527 C.ar      1 <0>         0.0000
     10 C10        -0.0580    0.5100    2.2913 C.ar      1 <0>         0.0000
     11 C11        -7.4523    2.9750    2.8314 C.2       1 <0>         0.0000
     12 C12        -9.0646    4.2243    3.5976 C.2       1 <0>         0.0000
     13 C13        -4.2599    1.7657    3.6786 C.2       1 <0>         0.0000
     14 C14        -9.7433    5.0221    4.6509 C.3       1 <0>         0.0000
     15 N1         -8.1905    2.2042   -0.5316 N.1       1 <0>         0.0000
     16 N2         -9.4076    4.0053    2.3724 N.2       1 <0>         0.0000
     17 N3         -5.3729    2.4112    3.8106 N.2       1 <0>         0.0000
     18 N4         -3.7657   -0.7935    1.0717 N.pl3     1 <0>         0.0000
     19 N5         -6.3272    2.1969    2.8396 N.pl3     1 <0>         0.0000
     20 O1         -7.8589    3.6098    3.9522 O.3       1 <0>         0.0000
     21 Br1         1.6304    1.1835    2.9088 Br        1 <0>         0.0000
     22 H1         -1.2623   -1.7710    0.0496 H         1 <0>         0.0000
     23 H2          0.8877   -0.8638    0.9128 H         1 <0>         0.0000
     24 H3         -1.1933    1.8118    3.5787 H         1 <0>         0.0000
     25 H4         -5.6681   -0.1611    1.7937 H         1 <0>         0.0000
     26 H5         -3.5347    1.9975    4.4561 H         1 <0>         0.0000
     27 H6         -9.9772    4.4018    5.5220 H         1 <0>         0.0000
     28 H7         -9.1062    5.8466    4.9873 H         1 <0>         0.0000
     29 H8        -10.6680    5.4283    4.2397 H         1 <0>         0.0000
     30 H9         -4.0801   -1.4670    0.3866 H         1 <0>         0.0000
     31 H10        -6.0096    1.9215    1.9078 H         1 <0>         0.0000
@<TRIPOS>BOND
     1    1    6 1
     2    1   15 3
     3    2    3 ar
     4    2    9 ar
     5    2   22 1
     6    3   10 ar
     7    3   23 1
     8    4    7 ar
     9    4   10 ar
    10    4   24 1
    11    5    8 2
    12    5   18 1
    13    5   25 1
    14    6   11 2
    15    6   16 1
    16    7    8 1
    17    7    9 ar
    18    8   13 1
    19    9   18 1
    20   10   21 1
    21   11   19 1
    22   11   20 1
    23   12   14 1
    24   12   16 2
    25   12   20 1
    26   13   17 2
    27   13   26 1
    28   14   27 1
    29   14   28 1
    30   14   29 1
    31   17   19 1
    32   18   30 1
    33   19   31 1
