@<TRIPOS>MOLECULE
*****
   27    28     0     0     0
SMALL
NO_CHARGES

@<TRIPOS>ATOM
      1 C1         -2.8113    3.7387    1.9151 C.1       1 <0>         0.0000
      2 C2          3.1097   -1.5193    2.2157 C.ar      1 <0>         0.0000
      3 C3          2.0986   -0.7052    2.7255 C.ar      1 <0>         0.0000
      4 C4          3.0209   -2.0383    0.9201 C.ar      1 <0>         0.0000
      5 C5          0.8789   -0.9142    0.6394 C.ar      1 <0>         0.0000
      6 C6         -2.1641    3.7069    0.6514 C.2       1 <0>         0.0000
      7 C7          0.9803   -0.3786    1.9376 C.ar      1 <0>         0.0000
      8 C8          1.8961   -1.7342    0.1509 C.ar      1 <0>         0.0000
      9 C9         -1.2129    2.8327    0.1791 C.2       1 <0>         0.0000
     10 C10        -1.6794    4.3159   -1.3567 C.2       1 <0>         0.0000
     11 C11        -0.0688    0.4830    2.5233 C.2       1 <0>         0.0000
     12 C12        -1.5306    4.9456   -2.6942 C.3       1 <0>         0.0000
     13 N1         -3.3607    3.7921    2.9425 N.1       1 <0>         0.0000
     14 N2         -2.4363    4.6415   -0.3659 N.2       1 <0>         0.0000
     15 N3         -0.7758    1.4073    1.9706 N.2       1 <0>         0.0000
     16 N4         -0.5870    1.7064    0.6520 N.pl3     1 <0>         0.0000
     17 O1         -0.8884    3.1949   -1.0913 O.3       1 <0>         0.0000
     18 Cl1         1.7495   -2.4031   -1.4644 Cl        1 <0>         0.0000
     19 H1          3.9749   -1.7582    2.8278 H         1 <0>         0.0000
     20 H2          2.1746   -0.3107    3.7353 H         1 <0>         0.0000
     21 H3          3.8025   -2.6744    0.5173 H         1 <0>         0.0000
     22 H4         -0.0054   -0.7441    0.0342 H         1 <0>         0.0000
     23 H5         -0.2737    0.3583    3.5852 H         1 <0>         0.0000
     24 H6         -0.5043    5.2926   -2.8529 H         1 <0>         0.0000
     25 H7         -1.7733    4.2358   -3.4916 H         1 <0>         0.0000
     26 H8         -2.2088    5.7972   -2.7543 H         1 <0>         0.0000
     27 H9          0.2710    1.4295    0.1739 H         1 <0>         0.0000
@<TRIPOS>BOND
     1    1    6 1
     2    1   13 3
     3    2    3 ar
     4    2    4 ar
     5    2   19 1
     6    3    7 ar
     7    3   20 1
     8    4    8 ar
     9    4   21 1
    10    5    7 ar
    11    5    8 ar
    12    5   22 1
    13    6    9 2
    14    6   14 1
    15    7   11 1
    16    8   18 1
    17    9   16 1
    18    9   17 1
    19   10   12 1
    20   10   14 2
    21   10   17 1
    22   11   15 2
    23   11   23 1
    24   12   24 1
    25   12   25 1
    26   12   26 1
    27   15   16 1
    28   16   27 1
