@<TRIPOS>MOLECULE
*****
   28    29     0     0     0
SMALL
NO_CHARGES

@<TRIPOS>ATOM
      1 C1          2.3796   -4.5537   -4.2808 C.1       1 <0>         0.0000
      2 C2          2.0199   -0.9616   -0.0241 C.ar      1 <0>         0.0000
      3 C3          0.8908   -0.6143    0.7144 C.ar      1 <0>         0.0000
      4 C4          2.7620   -2.4023    1.7718 C.ar      1 <0>         0.0000
      5 C5          3.0436   -3.6216   -3.4486 C.2       1 <0>         0.0000
      6 C6          2.9657   -1.8547    0.5020 C.ar      1 <0>         0.0000
      7 C7          0.7050   -1.1640    1.9820 C.ar      1 <0>         0.0000
      8 C8          1.6306   -2.0578    2.5187 C.ar      1 <0>         0.0000
      9 C9          3.6977   -2.3978   -3.8052 C.2       1 <0>         0.0000
     10 C10         3.1632   -3.7074   -2.0549 C.2       1 <0>         0.0000
     11 C11         3.8585   -1.8223   -5.1760 C.3       1 <0>         0.0000
     12 C12         4.1932   -2.2291   -0.3087 C.3       1 <0>         0.0000
     13 N1          1.8213   -5.3349   -4.9471 N.1       1 <0>         0.0000
     14 N2          4.1718   -1.7857   -2.7284 N.2       1 <0>         0.0000
     15 N3          3.8584   -2.6120   -1.6685 N.pl3     1 <0>         0.0000
     16 N4          2.7695   -4.6961   -1.1682 N.pl3     1 <0>         0.0000
     17 F1         -0.3923   -0.8240    2.6857 F         1 <0>         0.0000
     18 Br1         1.3459   -2.8120    4.2438 Br        1 <0>         0.0000
     19 H1          2.1691   -0.5444   -1.0162 H         1 <0>         0.0000
     20 H2          0.1462    0.0756    0.3287 H         1 <0>         0.0000
     21 H3          3.4800   -3.1020    2.1907 H         1 <0>         0.0000
     22 H4          2.8864   -1.6915   -5.6625 H         1 <0>         0.0000
     23 H5          4.3589   -0.8538   -5.1159 H         1 <0>         0.0000
     24 H6          4.4532   -2.4880   -5.8103 H         1 <0>         0.0000
     25 H7          4.8778   -1.3832   -0.3996 H         1 <0>         0.0000
     26 H8          4.7312   -3.0524    0.1723 H         1 <0>         0.0000
     27 H9          2.1925   -5.4057   -1.6099 H         1 <0>         0.0000
     28 H10         2.3327   -4.3467   -0.3193 H         1 <0>         0.0000
@<TRIPOS>BOND
     1    1    5 1
     2    1   13 3
     3    2    3 ar
     4    2    6 ar
     5    2   19 1
     6    3    7 ar
     7    3   20 1
     8    4    6 ar
     9    4    8 ar
    10    4   21 1
    11    5    9 1
    12    5   10 2
    13    6   12 1
    14    7    8 ar
    15    7   17 1
    16    8   18 1
    17    9   11 1
    18    9   14 2
    19   10   15 1
    20   10   16 1
    21   11   22 1
    22   11   23 1
    23   11   24 1
    24   12   15 1
    25   12   25 1
    26   12   26 1
    27   14   15 1
    28   16   27 1
    29   16   28 1
