@<TRIPOS>MOLECULE
*****
   27    28     0     0     0
SMALL
NO_CHARGES

@<TRIPOS>ATOM
      1 C1          0.8553    2.4992   -1.5697 C.1       1 <0>         0.0000
      2 C2          2.6164   -0.9174    0.4647 C.ar      1 <0>         0.0000
      3 C3          1.7828   -0.0785    1.2059 C.ar      1 <0>         0.0000
      4 C4          2.4202   -2.3013    0.4654 C.ar      1 <0>         0.0000
      5 C5          0.5584   -2.0154    2.0048 C.ar      1 <0>         0.0000
      6 C6          0.0812    1.3543   -1.2382 C.2       1 <0>         0.0000
      7 C7          0.7336   -0.6230    1.9655 C.ar      1 <0>         0.0000
      8 C8          1.3905   -2.8345    1.2448 C.ar      1 <0>         0.0000
      9 C9         -0.5488    1.1126   -0.0431 C.2       1 <0>         0.0000
     10 C10        -0.7828   -0.5974   -1.3851 C.2       1 <0>         0.0000
     11 C11        -0.2089    0.2284    2.7258 C.2       1 <0>         0.0000
     12 C12        -1.1926   -1.9845   -1.7227 C.3       1 <0>         0.0000
     13 N1          1.4960    3.4463   -1.7989 N.1       1 <0>         0.0000
     14 N2         -0.0959    0.2523   -2.0832 N.2       1 <0>         0.0000
     15 N3         -0.8115    1.3175    2.3893 N.2       1 <0>         0.0000
     16 N4         -0.6610    1.8535    1.1186 N.pl3     1 <0>         0.0000
     17 O1         -1.1262   -0.1258   -0.1325 O.3       1 <0>         0.0000
     18 Cl1         1.1263   -4.5717    1.2538 Cl        1 <0>         0.0000
     19 H1          3.4200   -0.4918   -0.1293 H         1 <0>         0.0000
     20 H2          1.9492    0.9935    1.2007 H         1 <0>         0.0000
     21 H3          3.0558   -2.9557   -0.1224 H         1 <0>         0.0000
     22 H4         -0.2439   -2.4506    2.5934 H         1 <0>         0.0000
     23 H5         -0.4539   -0.0946    3.7375 H         1 <0>         0.0000
     24 H6         -0.7133   -2.6948   -1.0407 H         1 <0>         0.0000
     25 H7         -2.2760   -2.1085   -1.6335 H         1 <0>         0.0000
     26 H8         -0.8853   -2.2045   -2.7453 H         1 <0>         0.0000
     27 H9         -1.1871    2.7154    1.0366 H         1 <0>         0.0000
@<TRIPOS>BOND
     1    1    6 1
     2    1   13 3
     3    2    3 ar
     4    2    4 ar
     5    2   19 1
     6    3    7 ar
     7    3   20 1
     8    4    8 ar
     9    4   21 1
    10    5    7 ar
    11    5    8 ar
    12    5   22 1
    13    6    9 2
    14    6   14 1
    15    7   11 1
    16    8   18 1
    17    9   16 1
    18    9   17 1
    19   10   12 1
    20   10   14 2
    21   10   17 1
    22   11   15 2
    23   11   23 1
    24   12   24 1
    25   12   25 1
    26   12   26 1
    27   15   16 1
    28   16   27 1
