@<TRIPOS>MOLECULE
*****
   20    20     0     0     0
SMALL
NO_CHARGES

@<TRIPOS>ATOM
      1 C1          4.2216   -2.3707   -0.4387 C.1       1 <0>         0.0000
      2 C2          1.9580   -1.4208   -0.3113 C.ar      1 <0>         0.0000
      3 C3          0.9231   -0.8185    0.4029 C.ar      1 <0>         0.0000
      4 C4          2.3171   -0.8683    2.4127 C.ar      1 <0>         0.0000
      5 C5          3.1693   -1.7520    0.3116 C.ar      1 <0>         0.0000
      6 C6          3.3531   -1.4736    1.6883 C.ar      1 <0>         0.0000
      7 C7          1.1252   -0.5533    1.7576 C.ar      1 <0>         0.0000
      8 C8          6.2063   -2.0617    3.9055 C.3       1 <0>         0.0000
      9 C9          4.8023   -1.5696    3.6061 C.3       1 <0>         0.0000
     10 N1          5.0607   -2.8734   -1.0724 N.1       1 <0>         0.0000
     11 O1          4.5482   -1.8235    2.2124 O.3       1 <0>         0.0000
     12 Br1        -0.2764    0.2730    2.7658 Br        1 <0>         0.0000
     13 H1          1.8332   -1.6408   -1.3669 H         1 <0>         0.0000
     14 H2         -0.0128   -0.5632   -0.0806 H         1 <0>         0.0000
     15 H3          2.4269   -0.6430    3.4652 H         1 <0>         0.0000
     16 H4          6.2921   -3.1317    3.6985 H         1 <0>         0.0000
     17 H5          6.9400   -1.5300    3.2937 H         1 <0>         0.0000
     18 H6          6.4399   -1.8895    4.9608 H         1 <0>         0.0000
     19 H7          4.7088   -0.4939    3.8007 H         1 <0>         0.0000
     20 H8          4.0578   -2.1011    4.2121 H         1 <0>         0.0000
@<TRIPOS>BOND
     1    1    5 1
     2    1   10 3
     3    2    3 ar
     4    2    5 ar
     5    2   13 1
     6    3    7 ar
     7    3   14 1
     8    4    6 ar
     9    4    7 ar
    10    4   15 1
    11    5    6 ar
    12    6   11 1
    13    7   12 1
    14    8    9 1
    15    8   16 1
    16    8   17 1
    17    8   18 1
    18    9   11 1
    19    9   19 1
    20    9   20 1
