@<TRIPOS>MOLECULE
*****
   29    30     0     0     0
SMALL
NO_CHARGES

@<TRIPOS>ATOM
      1 C1         -0.6392   -2.8877    4.9612 C.1       1 <0>         0.0000
      2 C2         -4.2587    1.3144    3.5954 C.2       1 <0>         0.0000
      3 C3          0.0510   -3.6487    3.9819 C.2       1 <0>         0.0000
      4 C4         -2.9023    0.0408    2.0347 C.2       1 <0>         0.0000
      5 C5         -3.9071    0.8095    1.4656 C.2       1 <0>         0.0000
      6 C6          0.1106   -3.4599    2.6196 C.2       1 <0>         0.0000
      7 C7          1.3182   -5.1941    3.1784 C.2       1 <0>         0.0000
      8 C8         -1.9102   -0.8460    1.4290 C.2       1 <0>         0.0000
      9 C9         -4.2894    0.9181    0.0129 C.3       1 <0>         0.0000
     10 C10         2.2135   -6.3450    2.8938 C.3       1 <0>         0.0000
     11 C11        -1.5230   -0.7173   -0.0262 C.3       1 <0>         0.0000
     12 N1         -1.1910   -2.2713    5.7837 N.1       1 <0>         0.0000
     13 N2         -4.6622    1.5292    2.3700 N.2       1 <0>         0.0000
     14 N3          0.8396   -4.7717    4.2974 N.2       1 <0>         0.0000
     15 N4         -1.3592   -1.6983    2.2343 N.2       1 <0>         0.0000
     16 N5         -0.3948   -2.5369    1.7443 N.pl3     1 <0>         0.0000
     17 O1          0.9071   -4.4239    2.0842 O.3       1 <0>         0.0000
     18 S1         -2.9367    0.2138    3.7780 S.3       1 <0>         0.0000
     19 H1         -4.7190    1.7789    4.4618 H         1 <0>         0.0000
     20 H2         -5.3345    1.2289   -0.0473 H         1 <0>         0.0000
     21 H3         -3.6922    1.6761   -0.5082 H         1 <0>         0.0000
     22 H4         -4.1785   -0.0289   -0.5195 H         1 <0>         0.0000
     23 H5          1.7324   -7.0602    2.2185 H         1 <0>         0.0000
     24 H6          3.1449   -6.0121    2.4242 H         1 <0>         0.0000
     25 H7          2.4467   -6.8441    3.8348 H         1 <0>         0.0000
     26 H8         -0.4329   -0.7730   -0.1269 H         1 <0>         0.0000
     27 H9         -1.9610   -1.5171   -0.6372 H         1 <0>         0.0000
     28 H10        -1.8409    0.2343   -0.4456 H         1 <0>         0.0000
     29 H11        -0.3508   -2.7751    0.7559 H         1 <0>         0.0000
@<TRIPOS>BOND
     1    1    3 1
     2    1   12 3
     3    2   13 2
     4    2   18 1
     5    2   19 1
     6    3    6 2
     7    3   14 1
     8    4    5 2
     9    4    8 1
    10    4   18 1
    11    5    9 1
    12    5   13 1
    13    6   16 1
    14    6   17 1
    15    7   10 1
    16    7   14 2
    17    7   17 1
    18    8   11 1
    19    8   15 2
    20    9   20 1
    21    9   21 1
    22    9   22 1
    23   10   23 1
    24   10   24 1
    25   10   25 1
    26   11   26 1
    27   11   27 1
    28   11   28 1
    29   15   16 1
    30   16   29 1
