@<TRIPOS>MOLECULE
*****
   23    24     0     0     0
SMALL
NO_CHARGES

@<TRIPOS>ATOM
      1 C1          0.2440    1.2408   -0.6735 C.2       1 <0>         0.0000
      2 C2         -0.1017   -0.1351   -0.5711 C.2       1 <0>         0.0000
      3 C3         -0.8419    2.0714   -0.5411 C.2       1 <0>         0.0000
      4 C4         -7.9978   -1.7662   -0.7551 C.2       1 <0>         0.0000
      5 C5         -1.4531   -0.3563   -0.3642 C.2       1 <0>         0.0000
      6 C6         -7.4024   -2.8414   -0.1584 C.2       1 <0>         0.0000
      7 C7         -5.5828   -1.6190   -0.4575 C.2       1 <0>         0.0000
      8 C8         -2.0458   -1.6741   -0.1886 C.2       1 <0>         0.0000
      9 C9         -8.1011   -4.0796    0.3199 C.3       1 <0>         0.0000
     10 N1         -6.0279   -2.7453    0.0103 N.2       1 <0>         0.0000
     11 N2         -3.2732   -2.0818   -0.1908 N.2       1 <0>         0.0000
     12 N3         -4.2681   -1.1788   -0.4157 N.pl3     1 <0>         0.0000
     13 S1         -2.3000    1.1801   -0.2731 S.3       1 <0>         0.0000
     14 S2         -6.8062   -0.5483   -1.1508 S.3       1 <0>         0.0000
     15 H1          1.2533    1.6040   -0.8356 H         1 <0>         0.0000
     16 H2          0.6127   -0.9488   -0.6479 H         1 <0>         0.0000
     17 H3         -0.8692    3.1533   -0.5671 H         1 <0>         0.0000
     18 H4         -9.0439   -1.6079   -0.9805 H         1 <0>         0.0000
     19 H5         -1.3241   -2.4734   -0.0275 H         1 <0>         0.0000
     20 H6         -7.7002   -4.9629   -0.1881 H         1 <0>         0.0000
     21 H7         -7.9371   -4.2183    1.3937 H         1 <0>         0.0000
     22 H8         -9.1764   -4.0247    0.1328 H         1 <0>         0.0000
     23 H9         -4.0670   -0.3317   -0.9447 H         1 <0>         0.0000
@<TRIPOS>BOND
     1    1    2 1
     2    1    3 2
     3    1   15 1
     4    2    5 2
     5    2   16 1
     6    3   13 1
     7    3   17 1
     8    4    6 2
     9    4   14 1
    10    4   18 1
    11    5    8 1
    12    5   13 1
    13    6    9 1
    14    6   10 1
    15    7   10 2
    16    7   12 1
    17    7   14 1
    18    8   11 2
    19    8   19 1
    20    9   20 1
    21    9   21 1
    22    9   22 1
    23   11   12 1
    24   12   23 1
