@<TRIPOS>MOLECULE
*****
   29    30     0     0     0
SMALL
NO_CHARGES

@<TRIPOS>ATOM
      1 C1          1.7510   -4.3202    1.1447 C.1       1 <0>         0.0000
      2 C2         -5.1261    1.2493    0.9117 C.2       1 <0>         0.0000
      3 C3          0.3628   -4.5886    1.0692 C.2       1 <0>         0.0000
      4 C4         -2.8016    0.5249    0.8529 C.2       1 <0>         0.0000
      5 C5         -3.0089    1.8552    1.1820 C.2       1 <0>         0.0000
      6 C6         -0.6298   -3.6464    0.8924 C.2       1 <0>         0.0000
      7 C7         -1.5075   -5.6343    1.0493 C.2       1 <0>         0.0000
      8 C8         -1.5663   -0.2479    0.7214 C.2       1 <0>         0.0000
      9 C9         -1.9805    2.8897    1.5547 C.3       1 <0>         0.0000
     10 C10        -2.6473   -6.5860    1.0876 C.3       1 <0>         0.0000
     11 C11        -0.2571    0.4299    0.3870 C.3       1 <0>         0.0000
     12 N1          2.8751   -4.0055    1.1962 N.1       1 <0>         0.0000
     13 N2         -4.3345    2.2452    1.2049 N.2       1 <0>         0.0000
     14 N3         -0.2401   -5.8523    1.1610 N.2       1 <0>         0.0000
     15 N4         -1.6890   -1.5334    0.8480 N.2       1 <0>         0.0000
     16 N5         -0.5667   -2.2980    0.6890 N.pl3     1 <0>         0.0000
     17 O1         -1.8221   -4.2823    0.8758 O.3       1 <0>         0.0000
     18 S1         -4.3433   -0.2632    0.5884 S.3       1 <0>         0.0000
     19 H1         -6.2074    1.3364    0.8772 H         1 <0>         0.0000
     20 H2         -1.6081    3.4244    0.6727 H         1 <0>         0.0000
     21 H3         -2.4508    3.6280    2.2076 H         1 <0>         0.0000
     22 H4         -1.1261    2.4572    2.0787 H         1 <0>         0.0000
     23 H5         -3.3261   -6.3485    1.9131 H         1 <0>         0.0000
     24 H6         -3.2227   -6.5452    0.1572 H         1 <0>         0.0000
     25 H7         -2.2555   -7.5944    1.2241 H         1 <0>         0.0000
     26 H8          0.4324    0.4345    1.2410 H         1 <0>         0.0000
     27 H9          0.2350   -0.0978   -0.4387 H         1 <0>         0.0000
     28 H10        -0.4045    1.4599    0.0711 H         1 <0>         0.0000
     29 H11         0.3633   -1.8916    0.7663 H         1 <0>         0.0000
@<TRIPOS>BOND
     1    1    3 1
     2    1   12 3
     3    2   13 2
     4    2   18 1
     5    2   19 1
     6    3    6 2
     7    3   14 1
     8    4    5 2
     9    4    8 1
    10    4   18 1
    11    5    9 1
    12    5   13 1
    13    6   16 1
    14    6   17 1
    15    7   10 1
    16    7   14 2
    17    7   17 1
    18    8   11 1
    19    8   15 2
    20    9   20 1
    21    9   21 1
    22    9   22 1
    23   10   23 1
    24   10   24 1
    25   10   25 1
    26   11   26 1
    27   11   27 1
    28   11   28 1
    29   15   16 1
    30   16   29 1
