@<TRIPOS>MOLECULE
*****
   31    33     0     0     0
SMALL
NO_CHARGES

@<TRIPOS>ATOM
      1 C1          8.8875    3.8806   -0.5813 C.ar      1 <0>         0.0000
      2 C2          8.8410    4.6971    0.5748 C.ar      1 <0>         0.0000
      3 C3          8.1825    2.6928   -0.6225 C.ar      1 <0>         0.0000
      4 C4          6.4497   -0.2338   -3.5083 C.ar      1 <0>         0.0000
      5 C5          8.0930    4.3163    1.6705 C.ar      1 <0>         0.0000
      6 C6          6.9875   -0.0088   -4.7731 C.ar      1 <0>         0.0000
      7 C7          7.4019   -2.4541   -3.5045 C.ar      1 <0>         0.0000
      8 C8          5.9689    1.6187    2.6767 C.ar      1 <0>         0.0000
      9 C9          7.4064    2.2787    0.4910 C.ar      1 <0>         0.0000
     10 C10         6.6597   -1.4603   -2.8493 C.ar      1 <0>         0.0000
     11 C11         7.3598    3.1014    1.6544 C.ar      1 <0>         0.0000
     12 C12         7.7488   -0.9956   -5.4082 C.ar      1 <0>         0.0000
     13 C13         7.9511   -2.2284   -4.7678 C.ar      1 <0>         0.0000
     14 C14         6.6298    1.0654    0.5674 C.ar      1 <0>         0.0000
     15 C15         6.0896   -1.7601   -1.5143 C.2       1 <0>         0.0000
     16 N1          6.6272    2.7558    2.7599 N.ar      1 <0>         0.0000
     17 N2          5.9236    0.7483    1.6369 N.ar      1 <0>         0.0000
     18 N3          6.0366   -1.0062   -0.4696 N.2       1 <0>         0.0000
     19 N4          6.6044    0.2269   -0.5309 N.pl3     1 <0>         0.0000
     20 Cl1         8.4117   -0.6658   -6.9850 Cl        1 <0>         0.0000
     21 Cl2         8.8789   -3.4990   -5.5200 Cl        1 <0>         0.0000
     22 H1          9.4806    4.1894   -1.4376 H         1 <0>         0.0000
     23 H2          9.4001    5.6289    0.5954 H         1 <0>         0.0000
     24 H3          8.2399    2.0909   -1.5261 H         1 <0>         0.0000
     25 H4          5.8264    0.5313   -3.0554 H         1 <0>         0.0000
     26 H5          8.0415    4.9250    2.5682 H         1 <0>         0.0000
     27 H6          6.8130    0.9322   -5.2852 H         1 <0>         0.0000
     28 H7          7.5657   -3.4148   -3.0250 H         1 <0>         0.0000
     29 H8          5.3798    1.3272    3.5452 H         1 <0>         0.0000
     30 H9          5.6735   -2.7553   -1.3654 H         1 <0>         0.0000
     31 H10         7.2247    0.4427   -1.3048 H         1 <0>         0.0000
@<TRIPOS>BOND
     1    1    2 ar
     2    1    3 ar
     3    1   22 1
     4    2    5 ar
     5    2   23 1
     6    3    9 ar
     7    3   24 1
     8    4    6 ar
     9    4   10 ar
    10    4   25 1
    11    5   11 ar
    12    5   26 1
    13    6   12 ar
    14    6   27 1
    15    7   10 ar
    16    7   13 ar
    17    7   28 1
    18    8   16 ar
    19    8   17 ar
    20    8   29 1
    21    9   11 ar
    22    9   14 ar
    23   10   15 1
    24   11   16 ar
    25   12   13 ar
    26   12   20 1
    27   13   21 1
    28   14   17 ar
    29   14   19 1
    30   15   18 2
    31   15   30 1
    32   18   19 1
    33   19   31 1
