@<TRIPOS>MOLECULE
*****
   37    39     0     0     0
SMALL
NO_CHARGES

@<TRIPOS>ATOM
      1 C1          2.1787    1.9724    5.0215 C.1       1 <0>         0.0000
      2 C2         -3.4260    0.6540    6.3692 C.ar      1 <0>         0.0000
      3 C3         -1.7813    1.6804    7.8421 C.ar      1 <0>         0.0000
      4 C4         -4.3762    0.6845    7.3939 C.ar      1 <0>         0.0000
      5 C5         -2.7272    1.7176    8.8701 C.ar      1 <0>         0.0000
      6 C6         -2.1244    1.1344    6.5933 C.ar      1 <0>         0.0000
      7 C7         -4.0179    1.2423    8.6226 C.ar      1 <0>         0.0000
      8 C8          0.5761    0.9854    3.3378 C.2       1 <0>         0.0000
      9 C9          0.6073    0.3646    1.2415 C.2       1 <0>         0.0000
     10 C10         0.8719    1.4889    4.6790 C.2       1 <0>         0.0000
     11 C11         1.0824    0.0760   -0.1435 C.3       1 <0>         0.0000
     12 C12         2.3247   -0.8375   -0.1919 C.3       1 <0>         0.0000
     13 C13         3.6427   -0.1508    0.1951 C.3       1 <0>         0.0000
     14 C14         3.7324    0.3817    1.6331 C.3       1 <0>         0.0000
     15 C15         2.7303    1.4905    1.9724 C.3       1 <0>         0.0000
     16 N1          3.2501    2.3543    5.2816 N.1       1 <0>         0.0000
     17 N2         -0.5968    0.4258    3.0392 N.2       1 <0>         0.0000
     18 N3         -0.5736    0.0328    1.7271 N.2       1 <0>         0.0000
     19 N4          0.0176    1.5222    5.6827 N.2       1 <0>         0.0000
     20 N5          1.3730    0.9755    2.2079 N.pl3     1 <0>         0.0000
     21 N6         -1.2124    1.0817    5.5295 N.pl3     1 <0>         0.0000
     22 I1         -5.2766    0.6229   10.4603 I         1 <0>         0.0000
     23 H1         -3.6956    0.2464    5.3976 H         1 <0>         0.0000
     24 H2         -0.7799    2.0638    8.0027 H         1 <0>         0.0000
     25 H3         -5.3730    0.2934    7.2202 H         1 <0>         0.0000
     26 H4         -2.4565    2.1271    9.8376 H         1 <0>         0.0000
     27 H5          0.2436   -0.3988   -0.6578 H         1 <0>         0.0000
     28 H6          1.2940    1.0145   -0.6736 H         1 <0>         0.0000
     29 H7          2.1508   -1.7101    0.4491 H         1 <0>         0.0000
     30 H8          2.4231   -1.2169   -1.2150 H         1 <0>         0.0000
     31 H9          4.4630   -0.8608    0.0394 H         1 <0>         0.0000
     32 H10         3.8252    0.6815   -0.4989 H         1 <0>         0.0000
     33 H11         3.6150   -0.4331    2.3573 H         1 <0>         0.0000
     34 H12         4.7350    0.7949    1.7895 H         1 <0>         0.0000
     35 H13         3.0492    2.0264    2.8605 H         1 <0>         0.0000
     36 H14         2.6720    2.2207    1.1575 H         1 <0>         0.0000
     37 H15        -1.4840    0.6812    4.6150 H         1 <0>         0.0000
@<TRIPOS>BOND
     1    1   10 1
     2    1   16 3
     3    2    4 ar
     4    2    6 ar
     5    2   23 1
     6    3    5 ar
     7    3    6 ar
     8    3   24 1
     9    4    7 ar
    10    4   25 1
    11    5    7 ar
    12    5   26 1
    13    6   21 1
    14    7   22 1
    15    8   10 1
    16    8   17 2
    17    8   20 1
    18    9   11 1
    19    9   18 2
    20    9   20 1
    21   10   19 2
    22   11   12 1
    23   11   27 1
    24   11   28 1
    25   12   13 1
    26   12   29 1
    27   12   30 1
    28   13   14 1
    29   13   31 1
    30   13   32 1
    31   14   15 1
    32   14   33 1
    33   14   34 1
    34   15   20 1
    35   15   35 1
    36   15   36 1
    37   17   18 1
    38   19   21 1
    39   21   37 1
