@<TRIPOS>MOLECULE
*****
   32    33     0     0     0
SMALL
NO_CHARGES

@<TRIPOS>ATOM
      1 C1         -1.7984   -0.0708    2.0393 C.1       1 <0>         0.0000
      2 C2          1.1657   -3.8820   -5.2520 C.ar      1 <0>         0.0000
      3 C3          2.0915   -3.4862   -6.2271 C.ar      1 <0>         0.0000
      4 C4          0.8757   -3.0579   -4.1687 C.ar      1 <0>         0.0000
      5 C5          2.4560   -1.4245   -5.0453 C.ar      1 <0>         0.0000
      6 C6         -0.8740    0.2170    0.9863 C.2       1 <0>         0.0000
      7 C7          2.7473   -2.2497   -6.1374 C.ar      1 <0>         0.0000
      8 C8         -0.6623   -0.6746   -0.0524 C.2       1 <0>         0.0000
      9 C9          1.5295   -1.8174   -4.0671 C.ar      1 <0>         0.0000
     10 C10         0.2725   -0.3481   -1.0871 C.2       1 <0>         0.0000
     11 C11        -0.1736    1.4985    1.0744 C.2       1 <0>         0.0000
     12 C12         0.9626    0.8883   -1.0219 C.2       1 <0>         0.0000
     13 C13         3.7211   -1.8060   -7.2045 C.3       1 <0>         0.0000
     14 C14        -1.3894   -1.9888   -0.1303 C.3       1 <0>         0.0000
     15 N1         -2.5573   -0.3295    2.8854 N.1       1 <0>         0.0000
     16 N2          1.3164   -0.9072   -3.0112 N.2       1 <0>         0.0000
     17 N3          0.4696   -1.2471   -2.1113 N.2       1 <0>         0.0000
     18 N4          0.7301    1.7316    0.0051 N.am      1 <0>         0.0000
     19 O1         -0.2947    2.3446    1.9485 O.2       1 <0>         0.0000
     20 O2          1.8339    1.2664   -1.9248 O.3       1 <0>         0.0000
     21 H1          0.6712   -4.8457   -5.3413 H         1 <0>         0.0000
     22 H2          2.3062   -4.1470   -7.0638 H         1 <0>         0.0000
     23 H3          0.1642   -3.3543   -3.4063 H         1 <0>         0.0000
     24 H4          2.9498   -0.4610   -4.9402 H         1 <0>         0.0000
     25 H5          3.2003   -1.2722   -8.0083 H         1 <0>         0.0000
     26 H6          4.4797   -1.1305   -6.7988 H         1 <0>         0.0000
     27 H7          4.2333   -2.6604   -7.6560 H         1 <0>         0.0000
     28 H8         -1.9529   -2.0514   -1.0657 H         1 <0>         0.0000
     29 H9         -2.0720   -2.1182    0.7090 H         1 <0>         0.0000
     30 H10        -0.6719   -2.8145   -0.1408 H         1 <0>         0.0000
     31 H11         1.2358    2.6144    0.0340 H         1 <0>         0.0000
     32 H12         1.8498    0.4654   -2.6148 H         1 <0>         0.0000
@<TRIPOS>BOND
     1    1    6 1
     2    1   15 3
     3    2    3 ar
     4    2    4 ar
     5    2   21 1
     6    3    7 ar
     7    3   22 1
     8    4    9 ar
     9    4   23 1
    10    5    7 ar
    11    5    9 ar
    12    5   24 1
    13    6    8 2
    14    6   11 1
    15    7   13 1
    16    8   10 1
    17    8   14 1
    18    9   16 1
    19   10   12 2
    20   10   17 1
    21   11   18 am
    22   11   19 2
    23   12   18 1
    24   12   20 1
    25   13   25 1
    26   13   26 1
    27   13   27 1
    28   14   28 1
    29   14   29 1
    30   14   30 1
    31   16   17 2
    32   18   31 1
    33   20   32 1
