@<TRIPOS>MOLECULE
*****
   44    46     0     0     0
SMALL
NO_CHARGES

@<TRIPOS>ATOM
      1 C1         -5.3383    0.2447    0.2027 C.1       1 <0>         0.0000
      2 C2         -3.2899    1.4167   -0.4392 C.2       1 <0>         0.0000
      3 C3         -4.6589    1.2766   -0.5184 C.2       1 <0>         0.0000
      4 C4         -2.5971    2.4430   -1.1386 C.2       1 <0>         0.0000
      5 C5         -3.3265    3.3409   -1.8918 C.2       1 <0>         0.0000
      6 C6         -5.4587    2.1819   -1.3401 C.2       1 <0>         0.0000
      7 C7          0.4583   -0.3623    0.9434 C.2       1 <0>         0.0000
      8 C8         -1.1229    2.6250   -0.9269 C.2       1 <0>         0.0000
      9 C9          3.3378    0.0702    0.9751 C.3       1 <0>         0.0000
     10 C10         2.6871   -0.4409   -0.3074 C.3       1 <0>         0.0000
     11 C11         0.4655   -0.6559   -1.5612 C.3       1 <0>         0.0000
     12 C12         2.6392   -0.5396    2.1835 C.3       1 <0>         0.0000
     13 C13        -0.7015    0.3001   -1.8730 C.3       1 <0>         0.0000
     14 C14         1.0164    1.4780   -0.6318 C.3       1 <0>         0.0000
     15 C15         1.2122   -0.0364   -0.3586 C.3       1 <0>         0.0000
     16 C16        -2.7558    4.5203   -2.6253 C.3       1 <0>         0.0000
     17 C17         0.4741   -0.7684    3.3458 C.3       1 <0>         0.0000
     18 N1         -5.8669   -0.6074    0.7970 N.1       1 <0>         0.0000
     19 N2         -4.6783    3.1731   -1.9738 N.am      1 <0>         0.0000
     20 N3          1.1775   -0.4557    2.1038 N.am      1 <0>         0.0000
     21 N4         -0.3313    1.5483   -1.1823 N.am      1 <0>         0.0000
     22 O1         -6.6733    2.1562   -1.5113 O.2       1 <0>         0.0000
     23 O2         -0.7752   -0.4673    0.9318 O.2       1 <0>         0.0000
     24 O3         -0.6649    3.6912   -0.4964 O.2       1 <0>         0.0000
     25 H1         -2.7197    0.7388    0.1927 H         1 <0>         0.0000
     26 H2          4.3993   -0.1949    1.0114 H         1 <0>         0.0000
     27 H3          3.2766    1.1631    1.0192 H         1 <0>         0.0000
     28 H4          3.2029   -0.0518   -1.1926 H         1 <0>         0.0000
     29 H5          2.7673   -1.5351   -0.3489 H         1 <0>         0.0000
     30 H6          0.1110   -1.6667   -1.3516 H         1 <0>         0.0000
     31 H7          1.1578   -0.7061   -2.4082 H         1 <0>         0.0000
     32 H8          2.9297   -1.5961    2.2896 H         1 <0>         0.0000
     33 H9          2.9536   -0.0313    3.1017 H         1 <0>         0.0000
     34 H10        -0.8104    0.4761   -2.9491 H         1 <0>         0.0000
     35 H11        -1.6375   -0.1003   -1.4914 H         1 <0>         0.0000
     36 H12         1.0818    2.1178    0.2487 H         1 <0>         0.0000
     37 H13         1.7683    1.8224   -1.3563 H         1 <0>         0.0000
     38 H14        -3.2416    4.6442   -3.5988 H         1 <0>         0.0000
     39 H15        -1.6817    4.4157   -2.7681 H         1 <0>         0.0000
     40 H16        -2.9171    5.4325   -2.0406 H         1 <0>         0.0000
     41 H17         0.6964   -1.7939    3.6679 H         1 <0>         0.0000
     42 H18        -0.5974   -0.6711    3.1837 H         1 <0>         0.0000
     43 H19         0.7930   -0.0776    4.1336 H         1 <0>         0.0000
     44 H20        -5.2268    3.8169   -2.5379 H         1 <0>         0.0000
@<TRIPOS>BOND
     1    1    3 1
     2    1   18 3
     3    2    3 2
     4    2    4 1
     5    2   25 1
     6    3    6 1
     7    4    5 2
     8    4    8 1
     9    5   16 1
    10    5   19 1
    11    6   19 am
    12    6   22 2
    13    7   15 1
    14    7   20 am
    15    7   23 2
    16    8   21 am
    17    8   24 2
    18    9   10 1
    19    9   12 1
    20    9   26 1
    21    9   27 1
    22   10   15 1
    23   10   28 1
    24   10   29 1
    25   11   13 1
    26   11   15 1
    27   11   30 1
    28   11   31 1
    29   12   20 1
    30   12   32 1
    31   12   33 1
    32   13   21 1
    33   13   34 1
    34   13   35 1
    35   14   15 1
    36   14   21 1
    37   14   36 1
    38   14   37 1
    39   16   38 1
    40   16   39 1
    41   16   40 1
    42   17   20 1
    43   17   41 1
    44   17   42 1
    45   17   43 1
    46   19   44 1
