@<TRIPOS>MOLECULE
*****
   30    31     0     0     0
SMALL
NO_CHARGES

@<TRIPOS>ATOM
      1 C1          0.9907   -2.9124    4.4424 C.2       1 <0>         0.0000
      2 C2          3.8305   -2.2623    6.9226 C.3       1 <0>         0.0000
      3 C3          4.2060   -2.7898    5.5701 C.3       1 <0>         0.0000
      4 C4          0.3017   -1.3817    0.3953 C.3       1 <0>         0.0000
      5 C5         -2.0325   -1.7692    0.7990 C.3       1 <0>         0.0000
      6 C6          0.5577   -1.3091    1.9028 C.3       1 <0>         0.0000
      7 C7         -1.7905   -1.6987    2.3088 C.3       1 <0>         0.0000
      8 C8          2.8297   -3.0475    6.1198 C.3       1 <0>         0.0000
      9 C9         -0.1859   -2.0442    4.0765 C.3       1 <0>         0.0000
     10 N1         -1.0605   -0.9636    0.0565 N.3       1 <0>         0.0000
     11 N2         -0.4223   -2.1203    2.6363 N.3       1 <0>         0.0000
     12 N3          1.6635   -2.4133    5.5485 N.am      1 <0>         0.0000
     13 O1          1.2964   -3.9306    3.8274 O.2       1 <0>         0.0000
     14 H1          4.2675   -2.7409    7.7905 H         1 <0>         0.0000
     15 H2          3.6872   -1.1935    7.0238 H         1 <0>         0.0000
     16 H3          4.3146   -2.0749    4.7637 H         1 <0>         0.0000
     17 H4          4.8958   -3.6237    5.5269 H         1 <0>         0.0000
     18 H5          1.0109   -0.7262   -0.1220 H         1 <0>         0.0000
     19 H6          0.4819   -2.4005    0.0290 H         1 <0>         0.0000
     20 H7         -1.9951   -2.8111    0.4561 H         1 <0>         0.0000
     21 H8         -3.0390   -1.3968    0.5792 H         1 <0>         0.0000
     22 H9          1.5704   -1.6810    2.1001 H         1 <0>         0.0000
     23 H10         0.5230   -0.2618    2.2323 H         1 <0>         0.0000
     24 H11        -1.9805   -0.6773    2.6656 H         1 <0>         0.0000
     25 H12        -2.5114   -2.3586    2.8063 H         1 <0>         0.0000
     26 H13         2.6216   -4.0575    6.4561 H         1 <0>         0.0000
     27 H14        -1.0781   -2.3902    4.6067 H         1 <0>         0.0000
     28 H15         0.0194   -1.0057    4.3524 H         1 <0>         0.0000
     29 H16        -1.2141   -1.0808   -0.9444 H         1 <0>         0.0000
     30 H17         1.3192   -1.5595    5.9781 H         1 <0>         0.0000
@<TRIPOS>BOND
     1    1    9 1
     2    1   12 am
     3    1   13 2
     4    2    3 1
     5    2    8 1
     6    2   14 1
     7    2   15 1
     8    3    8 1
     9    3   16 1
    10    3   17 1
    11    4    6 1
    12    4   10 1
    13    4   18 1
    14    4   19 1
    15    5    7 1
    16    5   10 1
    17    5   20 1
    18    5   21 1
    19    6   11 1
    20    6   22 1
    21    6   23 1
    22    7   11 1
    23    7   24 1
    24    7   25 1
    25    8   12 1
    26    8   26 1
    27    9   11 1
    28    9   27 1
    29    9   28 1
    30   10   29 1
    31   12   30 1
