@<TRIPOS>MOLECULE
*****
   20    20     0     0     0
SMALL
NO_CHARGES

@<TRIPOS>ATOM
      1 C1          1.8851   -1.0363   -0.1124 C.ar      1 <0>         0.0000
      2 C2          2.8783   -1.6520    2.0022 C.ar      1 <0>         0.0000
      3 C3          0.8066   -0.4630    0.5610 C.ar      1 <0>         0.0000
      4 C4          1.7997   -1.0786    2.6757 C.ar      1 <0>         0.0000
      5 C5          2.9210   -1.6309    0.6081 C.ar      1 <0>         0.0000
      6 C6          0.7638   -0.4841    1.9551 C.ar      1 <0>         0.0000
      7 C7          3.8416   -3.7181   -0.4322 C.3       1 <0>         0.0000
      8 C8          4.0741   -2.2438   -0.1121 C.3       1 <0>         0.0000
      9 N1         -0.3625    0.1144    2.6583 N.2       1 <0>         0.0000
     10 O1         -2.6383    0.0700    3.7150 O.2       1 <0>         0.0000
     11 S1         -1.5902   -0.7074    2.9957 S.o       1 <0>         0.0000
     12 H1          1.9100   -1.0150   -1.1988 H         1 <0>         0.0000
     13 H2          3.6806   -2.1130    2.5724 H         1 <0>         0.0000
     14 H3          0.0055   -0.0030   -0.0122 H         1 <0>         0.0000
     15 H4          1.7782   -1.1021    3.7623 H         1 <0>         0.0000
     16 H5          3.6383   -4.2907    0.4792 H         1 <0>         0.0000
     17 H6          4.7215   -4.1530   -0.9166 H         1 <0>         0.0000
     18 H7          2.9869   -3.8438   -1.1055 H         1 <0>         0.0000
     19 H8          4.2750   -1.6996   -1.0490 H         1 <0>         0.0000
     20 H9          4.9955   -2.1460    0.4844 H         1 <0>         0.0000
@<TRIPOS>BOND
     1    1    3 ar
     2    1    5 ar
     3    1   12 1
     4    2    4 ar
     5    2    5 ar
     6    2   13 1
     7    3    6 ar
     8    3   14 1
     9    4    6 ar
    10    4   15 1
    11    5    8 1
    12    6    9 1
    13    7    8 1
    14    7   16 1
    15    7   17 1
    16    7   18 1
    17    8   19 1
    18    8   20 1
    19    9   11 2
    20   10   11 2
