@<TRIPOS>MOLECULE
*****
   25    26     0     0     0
SMALL
NO_CHARGES

@<TRIPOS>ATOM
      1 C1          0.2265   -0.4197    0.9733 C.ar      1 <0>         0.0000
      2 C2          1.3879   -0.0684    1.6522 C.ar      1 <0>         0.0000
      3 C3          1.0331   -3.4475    6.3690 C.2       1 <0>         0.0000
      4 C4         -0.6317   -1.3224    1.5803 C.ar      1 <0>         0.0000
      5 C5          1.7075   -2.2383    6.6239 C.2       1 <0>         0.0000
      6 C6          1.6520   -0.6227    2.8997 C.ar      1 <0>         0.0000
      7 C7          0.5663   -3.3160    5.0840 C.2       1 <0>         0.0000
      8 C8          0.7299   -1.5161    3.4206 C.ar      1 <0>         0.0000
      9 C9         -0.2162   -4.2467    4.2471 C.3       1 <0>         0.0000
     10 C10         3.6593    0.6525    2.9227 C.3       1 <0>         0.0000
     11 N1         -0.4092   -1.8816    2.7908 N.ar      1 <0>         0.0000
     12 N2          1.6745   -1.4005    5.5842 N.2       1 <0>         0.0000
     13 N3          0.9739   -2.0842    4.6635 N.pl3     1 <0>         0.0000
     14 O1          2.7866   -0.2785    3.5634 O.3       1 <0>         0.0000
     15 H1          0.0006    0.0001   -0.0002 H         1 <0>         0.0000
     16 H2          2.0824    0.6367    1.2043 H         1 <0>         0.0000
     17 H3          0.9050   -4.2949    7.0265 H         1 <0>         0.0000
     18 H4         -1.5497   -1.6299    1.0907 H         1 <0>         0.0000
     19 H5          2.2217   -1.9330    7.5239 H         1 <0>         0.0000
     20 H6         -1.2986   -4.0867    4.3806 H         1 <0>         0.0000
     21 H7          0.0103   -4.1282    3.1737 H         1 <0>         0.0000
     22 H8         -0.0008   -5.3016    4.4892 H         1 <0>         0.0000
     23 H9          4.5261    0.8394    3.5613 H         1 <0>         0.0000
     24 H10         3.1232    1.5863    2.7355 H         1 <0>         0.0000
     25 H11         3.9940    0.2300    1.9724 H         1 <0>         0.0000
@<TRIPOS>BOND
     1    1    2 ar
     2    1    4 ar
     3    1   15 1
     4    2    6 ar
     5    2   16 1
     6    3    5 1
     7    3    7 2
     8    3   17 1
     9    4   11 ar
    10    4   18 1
    11    5   12 2
    12    5   19 1
    13    6    8 ar
    14    6   14 1
    15    7    9 1
    16    7   13 1
    17    8   11 ar
    18    8   13 1
    19    9   20 1
    20    9   21 1
    21    9   22 1
    22   10   14 1
    23   10   23 1
    24   10   24 1
    25   10   25 1
    26   12   13 1
