@<TRIPOS>MOLECULE
*****
   18    18     0     0     0
SMALL
NO_CHARGES

@<TRIPOS>ATOM
      1 C1          1.8851   -1.0363   -0.1124 C.ar      1 <0>         0.0000
      2 C2          0.8066   -0.4630    0.5610 C.ar      1 <0>         0.0000
      3 C3          2.9210   -1.6309    0.6081 C.ar      1 <0>         0.0000
      4 C4          0.7638   -0.4841    1.9551 C.ar      1 <0>         0.0000
      5 C5          1.7997   -1.0786    2.6757 C.ar      1 <0>         0.0000
      6 C6          2.8783   -1.6520    2.0022 C.ar      1 <0>         0.0000
      7 C7          1.7912   -2.3220    4.8016 C.3       1 <0>         0.0000
      8 N1         -0.3442    0.1042    2.6248 N.pl3     1 <0>         0.0000
      9 O1         -1.3459   -0.6060    2.8781 O.3       1 <0>         0.0000
     10 O2         -0.2868    1.3159    2.9419 O.2       1 <0>         0.0000
     11 O3          1.7803   -1.1086    4.0387 O.3       1 <0>         0.0000
     12 F1          3.8780   -2.2232    2.6882 F         1 <0>         0.0000
     13 Cl1         1.0054   -3.6765    3.9491 Cl        1 <0>         0.0000
     14 Cl2         0.7816   -1.9865    6.2668 Cl        1 <0>         0.0000
     15 Cl3         3.4177   -2.7438    5.3976 Cl        1 <0>         0.0000
     16 H1          1.9183   -1.0222   -1.1979 H         1 <0>         0.0000
     17 H2          0.0057   -0.0043   -0.0136 H         1 <0>         0.0000
     18 H3          3.7602   -2.0773    0.0830 H         1 <0>         0.0000
@<TRIPOS>BOND
     1    1    2 ar
     2    1    3 ar
     3    1   16 1
     4    2    4 ar
     5    2   17 1
     6    3    6 ar
     7    3   18 1
     8    4    5 ar
     9    4    8 1
    10    5    6 ar
    11    5   11 1
    12    6   12 1
    13    7   11 1
    14    7   13 1
    15    7   14 1
    16    7   15 1
    17    8    9 1
    18    8   10 2
