@<TRIPOS>MOLECULE
*****
   25    26     0     0     0
SMALL
NO_CHARGES

@<TRIPOS>ATOM
      1 C1          1.1875   -3.9947    2.2688 C.ar      1 <0>         0.0000
      2 C2          0.3503   -4.0632    1.1552 C.ar      1 <0>         0.0000
      3 C3          1.6047   -2.7547    2.7524 C.ar      1 <0>         0.0000
      4 C4         -0.0696   -2.8917    0.5252 C.ar      1 <0>         0.0000
      5 C5          1.1848   -1.5832    2.1224 C.ar      1 <0>         0.0000
      6 C6          0.3476   -1.6517    1.0088 C.ar      1 <0>         0.0000
      7 C7          0.4616    1.2420   -1.1133 C.3       1 <0>         0.0000
      8 C8          0.0462   -0.2311   -1.2711 C.3       1 <0>         0.0000
      9 C9          0.8388    0.9216    0.3436 C.3       1 <0>         0.0000
     10 C10        -0.1342   -0.3060    0.2843 C.3       1 <0>         0.0000
     11 C11        -1.5601    0.0252    0.7477 C.3       1 <0>         0.0000
     12 H1          1.5150   -4.9071    2.7585 H         1 <0>         0.0000
     13 H2          0.0264   -5.0293    0.7788 H         1 <0>         0.0000
     14 H3          2.2572   -2.7017    3.6192 H         1 <0>         0.0000
     15 H4         -0.7213   -2.9535   -0.3422 H         1 <0>         0.0000
     16 H5          1.5142   -0.6207    2.5044 H         1 <0>         0.0000
     17 H6         -0.3679    1.9509   -1.2121 H         1 <0>         0.0000
     18 H7          1.2843    1.5724   -1.7527 H         1 <0>         0.0000
     19 H8         -0.8515   -0.4018   -1.8725 H         1 <0>         0.0000
     20 H9          0.8503   -0.8671   -1.6614 H         1 <0>         0.0000
     21 H10         1.8952    0.6523    0.4673 H         1 <0>         0.0000
     22 H11         0.5937    1.7001    1.0720 H         1 <0>         0.0000
     23 H12        -1.8991    0.9375    0.2626 H         1 <0>         0.0000
     24 H13        -1.5701    0.1661    1.8259 H         1 <0>         0.0000
     25 H14        -2.2283   -0.7916    0.4853 H         1 <0>         0.0000
@<TRIPOS>BOND
     1    1    3 ar
     2    1    2 ar
     3    1   12 1
     4    2    4 ar
     5    2   13 1
     6    3    5 ar
     7    3   14 1
     8    4    6 ar
     9    4   15 1
    10    5    6 ar
    11    5   16 1
    12    6   10 1
    13    7    9 1
    14    7    8 1
    15    7   17 1
    16    7   18 1
    17    8   10 1
    18    8   19 1
    19    8   20 1
    20    9   10 1
    21    9   21 1
    22    9   22 1
    23   10   11 1
    24   11   23 1
    25   11   24 1
    26   11   25 1
