@<TRIPOS>MOLECULE
*****
   36    38     0     0     0
SMALL
NO_CHARGES

@<TRIPOS>ATOM
      1 C1          0.0425   -1.6062   -0.1031 C.ar      1 <0>         0.0000
      2 C2          1.0293    1.0057   -0.1098 C.ar      1 <0>         0.0000
      3 C3          1.2837   -1.3430    0.4895 C.ar      1 <0>         0.0000
      4 C4          1.7826   -0.0215    0.4819 C.ar      1 <0>         0.0000
      5 C5         -0.6854   -0.5768   -0.6921 C.ar      1 <0>         0.0000
      6 C6         -0.1987    0.7335   -0.6906 C.ar      1 <0>         0.0000
      7 C7         -2.7267    0.1848   -1.6981 C.cat     1 <0>         0.0000
      8 C8          2.0746   -2.4881    1.0961 C.3       1 <0>         0.0000
      9 C9          3.1066    0.3254    1.1347 C.3       1 <0>         0.0000
     10 C10         3.1823   -2.0174    2.0442 C.3       1 <0>         0.0000
     11 C11         3.9953   -0.8955    1.3931 C.3       1 <0>         0.0000
     12 C12        -2.3348    1.5749   -1.2256 C.3       1 <0>         0.0000
     13 C13        -2.4895    3.2241    0.7006 C.3       1 <0>         0.0000
     14 C14        -2.8719    1.8296    0.1950 C.3       1 <0>         0.0000
     15 N1         -1.9247   -0.8086   -1.3606 N.pl3     1 <0>         0.0000
     16 N2         -3.8518    0.0069   -2.3890 N.pl3     1 <0>         0.0000
     17 O1         -0.9204    1.7232   -1.3324 O.3       1 <0>         0.0000
     18 H1         -0.3508   -2.6217   -0.1042 H         1 <0>         0.0000
     19 H2          1.4009    2.0268   -0.1270 H         1 <0>         0.0000
     20 H3          1.3916   -3.1717    1.6119 H         1 <0>         0.0000
     21 H4          2.5249   -3.0652    0.2774 H         1 <0>         0.0000
     22 H5          3.6311    1.0637    0.5189 H         1 <0>         0.0000
     23 H6          2.8922    0.8244    2.0894 H         1 <0>         0.0000
     24 H7          2.7415   -1.6546    2.9813 H         1 <0>         0.0000
     25 H8          3.8257   -2.8638    2.3022 H         1 <0>         0.0000
     26 H9          4.4209   -1.2531    0.4472 H         1 <0>         0.0000
     27 H10         4.8363   -0.6056    2.0299 H         1 <0>         0.0000
     28 H11        -2.7456    2.3130   -1.9196 H         1 <0>         0.0000
     29 H12        -1.4046    3.3425    0.7473 H         1 <0>         0.0000
     30 H13        -2.8927    3.3800    1.7043 H         1 <0>         0.0000
     31 H14        -2.8896    4.0083    0.0499 H         1 <0>         0.0000
     32 H15        -3.9624    1.7161    0.1726 H         1 <0>         0.0000
     33 H16        -2.4857    1.0599    0.8717 H         1 <0>         0.0000
     34 H17        -2.1462   -1.7664   -1.6234 H         1 <0>         0.0000
     35 H18        -4.1744   -0.9042   -2.7001 H         1 <0>         0.0000
     36 H19        -4.4251    0.8044   -2.6388 H         1 <0>         0.0000
@<TRIPOS>BOND
     1    1    3 ar
     2    1    5 ar
     3    1   18 1
     4    2    4 ar
     5    2    6 ar
     6    2   19 1
     7    3    4 ar
     8    3    8 1
     9    4    9 1
    10    5    6 ar
    11    5   15 1
    12    6   17 1
    13    7   12 1
    14    7   15 2
    15    7   16 1
    16    8   10 1
    17    8   20 1
    18    8   21 1
    19    9   11 1
    20    9   22 1
    21    9   23 1
    22   10   11 1
    23   10   24 1
    24   10   25 1
    25   11   26 1
    26   11   27 1
    27   12   14 1
    28   12   17 1
    29   12   28 1
    30   13   14 1
    31   13   29 1
    32   13   30 1
    33   13   31 1
    34   14   32 1
    35   14   33 1
    36   15   34 1
    37   16   35 1
    38   16   36 1
