@<TRIPOS>MOLECULE
*****
   42    44     0     0     0
SMALL
NO_CHARGES

@<TRIPOS>ATOM
      1 C1          1.1469   -0.7385  -11.1360 C.ar      1 <0>         0.0000
      2 C2         -0.1409   -0.8589  -10.6031 C.ar      1 <0>         0.0000
      3 C3          2.2517   -0.7841  -10.2791 C.ar      1 <0>         0.0000
      4 C4         -0.3209   -1.0227   -9.2279 C.ar      1 <0>         0.0000
      5 C5          2.0693   -0.9474   -8.9042 C.ar      1 <0>         0.0000
      6 C6          1.4618   -2.0354   -6.1335 C.ar      1 <0>         0.0000
      7 C7         -0.4780   -0.6202   -6.2219 C.ar      1 <0>         0.0000
      8 C8          1.2770   -2.1992   -4.7587 C.ar      1 <0>         0.0000
      9 C9         -0.6579   -0.7852   -4.8491 C.ar      1 <0>         0.0000
     10 C10         0.7805   -1.0695   -8.3548 C.ar      1 <0>         0.0000
     11 C11         0.5879   -1.2426   -6.8946 C.ar      1 <0>         0.0000
     12 C12         0.2113   -1.5819   -4.0852 C.ar      1 <0>         0.0000
     13 C13         3.0573   -0.5705   -1.2714 C.2       1 <0>         0.0000
     14 C14        -0.0186   -3.1275   -0.5866 C.3       1 <0>         0.0000
     15 C15        -1.3981   -2.4193   -0.7069 C.3       1 <0>         0.0000
     16 C16         0.6430   -2.9857   -1.9709 C.3       1 <0>         0.0000
     17 C17        -1.4371   -1.7996   -2.1249 C.3       1 <0>         0.0000
     18 C18         0.0415   -1.6986   -2.5789 C.3       1 <0>         0.0000
     19 C19         0.6667   -0.4375   -1.9182 C.3       1 <0>         0.0000
     20 N1          2.0890   -0.2793   -2.1837 N.am      1 <0>         0.0000
     21 O1          2.8609   -0.9459   -0.1204 O.2       1 <0>         0.0000
     22 H1          1.2879   -0.6113  -12.2062 H         1 <0>         0.0000
     23 H2         -1.0063   -0.8351  -11.2605 H         1 <0>         0.0000
     24 H3          3.2568   -0.6828  -10.6809 H         1 <0>         0.0000
     25 H4         -1.3247   -1.1436   -8.8296 H         1 <0>         0.0000
     26 H5          2.9343   -0.9544   -8.2463 H         1 <0>         0.0000
     27 H6          2.2794   -2.5557   -6.6255 H         1 <0>         0.0000
     28 H7         -1.1589    0.0213   -6.7752 H         1 <0>         0.0000
     29 H8          1.9672   -2.8319   -4.2095 H         1 <0>         0.0000
     30 H9         -1.4887   -0.2781   -4.3658 H         1 <0>         0.0000
     31 H10         4.0745   -0.4212   -1.6818 H         1 <0>         0.0000
     32 H11         0.6025   -2.6455    0.1725 H         1 <0>         0.0000
     33 H12        -0.1172   -4.1780   -0.2990 H         1 <0>         0.0000
     34 H13        -2.2302   -3.1149   -0.5654 H         1 <0>         0.0000
     35 H14        -1.5045   -1.6470    0.0610 H         1 <0>         0.0000
     36 H15         1.7334   -2.9597   -1.9018 H         1 <0>         0.0000
     37 H16         0.3733   -3.8320   -2.6131 H         1 <0>         0.0000
     38 H17        -1.9702   -2.4588   -2.8181 H         1 <0>         0.0000
     39 H18        -1.9526   -0.8335   -2.1409 H         1 <0>         0.0000
     40 H19         0.5541   -0.4771   -0.8341 H         1 <0>         0.0000
     41 H20         0.1414    0.4525   -2.2807 H         1 <0>         0.0000
     42 H21         2.3782   -0.0611   -3.1293 H         1 <0>         0.0000
@<TRIPOS>BOND
     1    1    3 ar
     2    1    2 ar
     3    1   22 1
     4    2    4 ar
     5    2   23 1
     6    3    5 ar
     7    3   24 1
     8    4   10 ar
     9    4   25 1
    10    5   10 ar
    11    5   26 1
    12    6    8 ar
    13    6   11 ar
    14    6   27 1
    15    7    9 ar
    16    7   11 ar
    17    7   28 1
    18    8   12 ar
    19    8   29 1
    20    9   12 ar
    21    9   30 1
    22   10   11 1
    23   12   18 1
    24   13   20 am
    25   13   21 2
    26   13   31 1
    27   14   15 1
    28   14   16 1
    29   14   32 1
    30   14   33 1
    31   15   17 1
    32   15   34 1
    33   15   35 1
    34   16   18 1
    35   16   36 1
    36   16   37 1
    37   17   18 1
    38   17   38 1
    39   17   39 1
    40   18   19 1
    41   19   20 1
    42   19   40 1
    43   19   41 1
    44   20   42 1
