@<TRIPOS>MOLECULE
*****
   54    56     0     0     0
SMALL
NO_CHARGES

@<TRIPOS>ATOM
      1 C1         -3.0199   -3.8523   -5.1223 C.ar      1 <0>         0.0000
      2 C2         -3.3628   -2.5196   -5.3139 C.ar      1 <0>         0.0000
      3 C3         -1.7447   -4.1995   -4.6485 C.ar      1 <0>         0.0000
      4 C4         -1.1675   -1.8196   -4.5076 C.ar      1 <0>         0.0000
      5 C5         -2.4541   -1.5093   -4.9860 C.ar      1 <0>         0.0000
      6 C6         -0.8244   -3.1813   -4.3477 C.ar      1 <0>         0.0000
      7 C7         -3.1207   -7.4146   -5.1053 C.2       1 <0>         0.0000
      8 C8         -1.8300   -7.4589   -2.8777 C.2       1 <0>         0.0000
      9 C9         -1.3922   -5.6553   -4.5493 C.2       1 <0>         0.0000
     10 C10        -2.6419   -8.8407   -5.2867 C.3       1 <0>         0.0000
     11 C11        -1.0650   -8.7005   -3.3044 C.3       1 <0>         0.0000
     12 C12        -1.2087   -9.0658   -4.7890 C.3       1 <0>         0.0000
     13 C13         3.1750    1.4699   -2.7599 C.3       1 <0>         0.0000
     14 C14         2.3988    2.1575   -1.6019 C.3       1 <0>         0.0000
     15 C15         2.2960    0.2801   -3.1822 C.3       1 <0>         0.0000
     16 C16         0.9533    1.5864   -1.6565 C.3       1 <0>         0.0000
     17 C17        -2.4762   -6.5926   -3.9696 C.3       1 <0>         0.0000
     18 C18         0.8684    0.8139   -2.9892 C.3       1 <0>         0.0000
     19 C19        -4.6320    1.8541   -3.6906 C.3       1 <0>         0.0000
     20 C20        -0.2094   -0.2480   -2.9791 C.3       1 <0>         0.0000
     21 C21        -4.0476    0.4431   -3.6975 C.3       1 <0>         0.0000
     22 O1         -3.9993   -6.9195   -5.7893 O.2       1 <0>         0.0000
     23 O2         -1.9611   -7.1430   -1.7092 O.2       1 <0>         0.0000
     24 O3         -0.3110   -6.0920   -4.9010 O.2       1 <0>         0.0000
     25 O4         -1.9550    1.1555   -5.2023 O.2       1 <0>         0.0000
     26 O5         -4.0062    0.1508   -6.3420 O.2       1 <0>         0.0000
     27 O6         -0.2247   -0.8730   -4.2842 O.3       1 <0>         0.0000
     28 S1         -3.0623    0.1928   -5.2129 S.o2      1 <0>         0.0000
     29 Cl1         0.7638   -3.5311   -3.7219 Cl        1 <0>         0.0000
     30 H1         -3.7263   -4.6351   -5.3820 H         1 <0>         0.0000
     31 H2         -4.3271   -2.2539   -5.7350 H         1 <0>         0.0000
     32 H3         -3.3438   -9.4688   -4.7174 H         1 <0>         0.0000
     33 H4         -2.7692   -9.1062   -6.3393 H         1 <0>         0.0000
     34 H5         -0.0150   -8.5371   -3.0396 H         1 <0>         0.0000
     35 H6         -1.4232   -9.5096   -2.6576 H         1 <0>         0.0000
     36 H7         -0.5177   -8.4659   -5.3841 H         1 <0>         0.0000
     37 H8         -0.9347  -10.1147   -4.9348 H         1 <0>         0.0000
     38 H9          3.2817    2.1615   -3.6030 H         1 <0>         0.0000
     39 H10         4.1842    1.1649   -2.4670 H         1 <0>         0.0000
     40 H11         2.8605    1.9447   -0.6330 H         1 <0>         0.0000
     41 H12         2.4016    3.2453   -1.7187 H         1 <0>         0.0000
     42 H13         2.4863   -0.0626   -4.2022 H         1 <0>         0.0000
     43 H14         2.4590   -0.5743   -2.5112 H         1 <0>         0.0000
     44 H15         0.7912    0.8944   -0.8201 H         1 <0>         0.0000
     45 H16         0.1879    2.3648   -1.5804 H         1 <0>         0.0000
     46 H17        -3.2572   -5.9955   -3.4987 H         1 <0>         0.0000
     47 H18         0.6337    1.5104   -3.8029 H         1 <0>         0.0000
     48 H19        -3.8388    2.6054   -3.7059 H         1 <0>         0.0000
     49 H20        -5.2816    2.0125   -4.5547 H         1 <0>         0.0000
     50 H21        -5.2251    1.9937   -2.7819 H         1 <0>         0.0000
     51 H22        -1.1889    0.2015   -2.7830 H         1 <0>         0.0000
     52 H23        -0.0087   -1.0137   -2.2182 H         1 <0>         0.0000
     53 H24        -4.8215   -0.3286   -3.7065 H         1 <0>         0.0000
     54 H25        -3.3788    0.2681   -2.8513 H         1 <0>         0.0000
@<TRIPOS>BOND
     1    1    2 ar
     2    1    3 ar
     3    1   30 1
     4    2    5 ar
     5    2   31 1
     6    3    6 ar
     7    3    9 1
     8    4    5 ar
     9    4    6 ar
    10    4   27 1
    11    5   28 1
    12    6   29 1
    13    7   10 1
    14    7   17 1
    15    7   22 2
    16    8   11 1
    17    8   17 1
    18    8   23 2
    19    9   17 1
    20    9   24 2
    21   10   12 1
    22   10   32 1
    23   10   33 1
    24   11   12 1
    25   11   34 1
    26   11   35 1
    27   12   36 1
    28   12   37 1
    29   13   14 1
    30   13   15 1
    31   13   38 1
    32   13   39 1
    33   14   16 1
    34   14   40 1
    35   14   41 1
    36   15   18 1
    37   15   42 1
    38   15   43 1
    39   16   18 1
    40   16   44 1
    41   16   45 1
    42   17   46 1
    43   18   20 1
    44   18   47 1
    45   19   21 1
    46   19   48 1
    47   19   49 1
    48   19   50 1
    49   20   27 1
    50   20   51 1
    51   20   52 1
    52   21   28 1
    53   21   53 1
    54   21   54 1
    55   25   28 2
    56   26   28 2
