@<TRIPOS>MOLECULE
*****
   27    27     0     0     0
SMALL
NO_CHARGES

@<TRIPOS>ATOM
      1 C1          0.2938    1.0025   -0.6052 C.2       1 <0>         0.0000
      2 C2          0.4126   -0.2441   -0.0649 C.2       1 <0>         0.0000
      3 C3          1.4680    1.7752   -0.9561 C.2       1 <0>         0.0000
      4 C4         -1.9780   -0.1613   -0.4444 C.3       1 <0>         0.0000
      5 C5         -0.8811   -0.9050    0.3418 C.3       1 <0>         0.0000
      6 C6         -2.1843   -3.0874    0.6195 C.3       1 <0>         0.0000
      7 C7          1.8088    5.1494   -2.2877 C.3       1 <0>         0.0000
      8 C8         -0.8938   -2.4252    0.1254 C.3       1 <0>         0.0000
      9 C9          2.3444    3.8220   -1.7851 C.3       1 <0>         0.0000
     10 O1          2.6240    1.3393   -0.8255 O.2       1 <0>         0.0000
     11 O2          1.5625   -0.8861    0.1743 O.3       1 <0>         0.0000
     12 O3          1.1986    3.0042   -1.4261 O.3       1 <0>         0.0000
     13 S1         -1.3966    1.5705   -0.7324 S.3       1 <0>         0.0000
     14 H1         -2.1311   -0.6387   -1.4180 H         1 <0>         0.0000
     15 H2         -2.9290   -0.1267    0.0880 H         1 <0>         0.0000
     16 H3         -1.0086   -0.7018    1.4172 H         1 <0>         0.0000
     17 H4         -2.3465   -2.8887    1.6853 H         1 <0>         0.0000
     18 H5         -2.1401   -4.1729    0.4860 H         1 <0>         0.0000
     19 H6         -3.0628   -2.7243    0.0754 H         1 <0>         0.0000
     20 H7          1.1692    5.0059   -3.1634 H         1 <0>         0.0000
     21 H8          1.2257    5.6542   -1.5120 H         1 <0>         0.0000
     22 H9          2.6438    5.7984   -2.5709 H         1 <0>         0.0000
     23 H10        -0.7501   -2.6328   -0.9422 H         1 <0>         0.0000
     24 H11        -0.0315   -2.8559    0.6437 H         1 <0>         0.0000
     25 H12         2.9784    3.9398   -0.9021 H         1 <0>         0.0000
     26 H13         2.9229    3.2944   -2.5483 H         1 <0>         0.0000
     27 H14         2.2878   -0.2712   -0.1180 H         1 <0>         0.0000
@<TRIPOS>BOND
     1    1    2 2
     2    1    3 1
     3    1   13 1
     4    2    5 1
     5    2   11 1
     6    3   10 2
     7    3   12 1
     8    4    5 1
     9    4   13 1
    10    4   14 1
    11    4   15 1
    12    5    8 1
    13    5   16 1
    14    6    8 1
    15    6   17 1
    16    6   18 1
    17    6   19 1
    18    7    9 1
    19    7   20 1
    20    7   21 1
    21    7   22 1
    22    8   23 1
    23    8   24 1
    24    9   12 1
    25    9   25 1
    26    9   26 1
    27   11   27 1
