@<TRIPOS>MOLECULE
*****
   50    53     0     0     0
SMALL
NO_CHARGES

@<TRIPOS>ATOM
      1 C1          3.4496    3.4123   -7.8236 C.ar      1 <0>         0.0000
      2 C2          2.1295    2.9117   -7.8260 C.ar      1 <0>         0.0000
      3 C3          4.1989    3.4738   -6.6507 C.ar      1 <0>         0.0000
      4 C4          2.6704   -0.9847   -0.1455 C.ar      1 <0>         0.0000
      5 C5          1.5203    2.4580   -6.6536 C.ar      1 <0>         0.0000
      6 C6          2.8404   -2.3664   -0.1187 C.ar      1 <0>         0.0000
      7 C7          4.0239    2.9183   -4.0809 C.2       1 <0>         0.0000
      8 C8          3.6070    3.0223   -5.4570 C.ar      1 <0>         0.0000
      9 C9          1.3886   -0.4176   -0.1811 C.ar      1 <0>         0.0000
     10 C10         0.2275   -1.2146   -0.1924 C.ar      1 <0>         0.0000
     11 C11         2.2858    2.5283   -5.4944 C.ar      1 <0>         0.0000
     12 C12         0.4100   -2.6130   -0.1466 C.ar      1 <0>         0.0000
     13 C13         1.6985   -3.1465   -0.1187 C.ar      1 <0>         0.0000
     14 C14         2.9698    2.3909   -3.3979 C.2       1 <0>         0.0000
     15 C15         2.8323    2.0642   -1.9628 C.2       1 <0>         0.0000
     16 C16        -1.1603    0.9161   -0.3907 C.3       1 <0>         0.0000
     17 C17         1.3374    1.1003   -0.2508 C.3       1 <0>         0.0000
     18 C18        -1.1878   -0.6208   -0.1979 C.3       1 <0>         0.0000
     19 C19         0.0037    1.6362    0.2914 C.3       1 <0>         0.0000
     20 C20        -1.8971   -0.9751    1.1326 C.3       1 <0>         0.0000
     21 C21        -2.0217   -1.1758   -1.3781 C.3       1 <0>         0.0000
     22 C22        -0.1263    3.1653    0.0812 C.3       1 <0>         0.0000
     23 N1          1.6053    1.5733   -1.6043 N.am      1 <0>         0.0000
     24 O1          3.7659    2.2387   -1.1784 O.2       1 <0>         0.0000
     25 O2          1.8902    2.1404   -4.2367 O.3       1 <0>         0.0000
     26 O3         -0.6645   -3.4685   -0.1161 O.3       1 <0>         0.0000
     27 O4          0.0656    1.4121    1.6947 O.3       1 <0>         0.0000
     28 F1          1.7925   -4.5144   -0.0761 F         1 <0>         0.0000
     29 F2         -1.1476    3.6391    0.8559 F         1 <0>         0.0000
     30 F3          0.9853    3.8307    0.4386 F         1 <0>         0.0000
     31 F4         -0.4248    3.5101   -1.1935 F         1 <0>         0.0000
     32 H1          3.8853    3.7555   -8.7577 H         1 <0>         0.0000
     33 H2          1.5745    2.8792   -8.7593 H         1 <0>         0.0000
     34 H3          5.2140    3.8609   -6.6574 H         1 <0>         0.0000
     35 H4          3.5372   -0.3307   -0.1412 H         1 <0>         0.0000
     36 H5          0.5055    2.0725   -6.6431 H         1 <0>         0.0000
     37 H6          3.8200   -2.8328   -0.0884 H         1 <0>         0.0000
     38 H7          4.9712    3.1935   -3.6379 H         1 <0>         0.0000
     39 H8         -1.1123    1.1446   -1.4601 H         1 <0>         0.0000
     40 H9         -2.1135    1.3298   -0.0436 H         1 <0>         0.0000
     41 H10         2.1347    1.5109    0.3689 H         1 <0>         0.0000
     42 H11        -2.8883   -0.5075    1.1643 H         1 <0>         0.0000
     43 H12        -1.3163   -0.6301    1.9904 H         1 <0>         0.0000
     44 H13        -2.0316   -2.0541    1.2231 H         1 <0>         0.0000
     45 H14        -2.9855   -0.6557   -1.4227 H         1 <0>         0.0000
     46 H15        -2.2139   -2.2428   -1.2721 H         1 <0>         0.0000
     47 H16        -1.5055   -1.0124   -2.3306 H         1 <0>         0.0000
     48 H17         0.9630    1.3328   -2.3493 H         1 <0>         0.0000
     49 H18        -0.3204   -4.3777   -0.0742 H         1 <0>         0.0000
     50 H19        -0.7802    1.6847    2.0870 H         1 <0>         0.0000
@<TRIPOS>BOND
     1    1    2 ar
     2    1    3 ar
     3    1   32 1
     4    2    5 ar
     5    2   33 1
     6    3    8 ar
     7    3   34 1
     8    4    6 ar
     9    4    9 ar
    10    4   35 1
    11    5   11 ar
    12    5   36 1
    13    6   13 ar
    14    6   37 1
    15    7    8 1
    16    7   14 2
    17    7   38 1
    18    8   11 ar
    19    9   10 ar
    20    9   17 1
    21   10   12 ar
    22   10   18 1
    23   11   25 1
    24   12   13 ar
    25   12   26 1
    26   13   28 1
    27   14   15 1
    28   14   25 1
    29   15   23 am
    30   15   24 2
    31   16   18 1
    32   16   19 1
    33   16   39 1
    34   16   40 1
    35   17   19 1
    36   17   23 1
    37   17   41 1
    38   18   20 1
    39   18   21 1
    40   19   22 1
    41   19   27 1
    42   20   42 1
    43   20   43 1
    44   20   44 1
    45   21   45 1
    46   21   46 1
    47   21   47 1
    48   22   29 1
    49   22   30 1
    50   22   31 1
    51   23   48 1
    52   26   49 1
    53   27   50 1
