@<TRIPOS>MOLECULE
*****
   45    49     0     0     0
SMALL
NO_CHARGES

@<TRIPOS>ATOM
      1 C1         -1.9477    5.9655    0.5960 C.ar      1 <0>         0.0000
      2 C2          0.3772    5.1827    0.5784 C.ar      1 <0>         0.0000
      3 C3         -2.2223    4.8748   -0.2473 C.ar      1 <0>         0.0000
      4 C4         -0.6274    6.0861    0.9900 C.ar      1 <0>         0.0000
      5 C5         -3.3567    4.2993   -0.9116 C.2       1 <0>         0.0000
      6 C6         -7.1588    5.7482   -0.7475 C.ar      1 <0>         0.0000
      7 C7         -1.1428    4.0284   -0.6052 C.ar      1 <0>         0.0000
      8 C8         -6.8697    4.5839   -1.5056 C.ar      1 <0>         0.0000
      9 C9         -4.7434    4.7691   -0.8924 C.ar      1 <0>         0.0000
     10 C10        -9.1319    4.9376   -1.7715 C.2       1 <0>         0.0000
     11 C11        -0.2934   -0.5812   -1.4588 C.3       1 <0>         0.0000
     12 C12        -0.4956    0.6935    0.3206 C.3       1 <0>         0.0000
     13 C13        -1.1564    0.6670   -1.0945 C.3       1 <0>         0.0000
     14 C14        -8.6288    6.0767   -0.8497 C.3       1 <0>         0.0000
     15 C15         0.0371   -0.7141    0.0330 C.3       1 <0>         0.0000
     16 C16        -9.3426    5.9930    0.5127 C.3       1 <0>         0.0000
     17 C17        -8.8782    7.4381   -1.5255 C.3       1 <0>         0.0000
     18 C18        -0.9718    1.8976   -1.9724 C.3       1 <0>         0.0000
     19 N1          0.1341    4.1443   -0.2215 N.ar      1 <0>         0.0000
     20 N2         -2.9921    3.2134   -1.6010 N.2       1 <0>         0.0000
     21 N3         -6.2173    6.3777   -0.0871 N.ar      1 <0>         0.0000
     22 N4         -5.6711    4.0625   -1.6024 N.ar      1 <0>         0.0000
     23 N5         -4.9625    5.8721   -0.1604 N.ar      1 <0>         0.0000
     24 N6         -1.6633    3.0578   -1.4292 N.pl3     1 <0>         0.0000
     25 N7         -8.0324    4.1260   -2.0937 N.am      1 <0>         0.0000
     26 O1        -10.2662    4.7532   -2.1624 O.2       1 <0>         0.0000
     27 F1         -0.2571    7.1040    1.8067 F         1 <0>         0.0000
     28 F2          1.3469   -0.9597    0.3541 F         1 <0>         0.0000
     29 F3         -0.7078   -1.6971    0.6481 F         1 <0>         0.0000
     30 H1         -2.7180    6.6585    0.9144 H         1 <0>         0.0000
     31 H2          1.3981    5.3298    0.9241 H         1 <0>         0.0000
     32 H3         -0.7973   -1.4365   -1.9122 H         1 <0>         0.0000
     33 H4          0.5999   -0.3237   -2.0346 H         1 <0>         0.0000
     34 H5          0.3154    1.4222    0.3897 H         1 <0>         0.0000
     35 H6         -1.1534    0.7821    1.1867 H         1 <0>         0.0000
     36 H7         -2.2181    0.4165   -1.0340 H         1 <0>         0.0000
     37 H8        -10.4190    6.1236    0.3741 H         1 <0>         0.0000
     38 H9         -8.9638    6.7792    1.1709 H         1 <0>         0.0000
     39 H10        -9.1694    5.0268    0.9966 H         1 <0>         0.0000
     40 H11        -9.9505    7.5813   -1.6825 H         1 <0>         0.0000
     41 H12        -8.3737    7.5024   -2.4944 H         1 <0>         0.0000
     42 H13        -8.4955    8.2375   -0.8857 H         1 <0>         0.0000
     43 H14        -1.3611    1.7207   -2.9784 H         1 <0>         0.0000
     44 H15         0.0857    2.1644   -2.0455 H         1 <0>         0.0000
     45 H16        -8.0970    3.3070   -2.6896 H         1 <0>         0.0000
@<TRIPOS>BOND
     1    1    3 ar
     2    1    4 ar
     3    1   30 1
     4    2    4 ar
     5    2   19 ar
     6    2   31 1
     7    3    5 1
     8    3    7 ar
     9    4   27 1
    10    5    9 1
    11    5   20 2
    12    6    8 ar
    13    6   14 1
    14    6   21 ar
    15    7   19 ar
    16    7   24 1
    17    8   22 ar
    18    8   25 1
    19    9   22 ar
    20    9   23 ar
    21   10   14 1
    22   10   25 am
    23   10   26 2
    24   11   13 1
    25   11   15 1
    26   11   32 1
    27   11   33 1
    28   12   13 1
    29   12   15 1
    30   12   34 1
    31   12   35 1
    32   13   18 1
    33   13   36 1
    34   14   16 1
    35   14   17 1
    36   15   28 1
    37   15   29 1
    38   16   37 1
    39   16   38 1
    40   16   39 1
    41   17   40 1
    42   17   41 1
    43   17   42 1
    44   18   24 1
    45   18   43 1
    46   18   44 1
    47   20   24 1
    48   21   23 ar
    49   25   45 1
