@<TRIPOS>MOLECULE
*****
   43    43     0     0     0
SMALL
NO_CHARGES

@<TRIPOS>ATOM
      1 C1         -0.4783   -3.8751    4.5451 C.2       1 <0>         0.0000
      2 C2          0.4862   -3.4531    3.5971 C.2       1 <0>         0.0000
      3 C3         -1.7081   -3.8363    3.9259 C.2       1 <0>         0.0000
      4 C4         -0.1836   -3.1692    2.4274 C.2       1 <0>         0.0000
      5 C5          0.4007   -2.6850    1.1332 C.2       1 <0>         0.0000
      6 C6         -2.5726   -3.2327    1.6656 C.3       1 <0>         0.0000
      7 C7         -1.1240    1.7486   -1.3185 C.3       1 <0>         0.0000
      8 C8         -1.9914   -0.4004   -1.8703 C.3       1 <0>         0.0000
      9 C9          1.3069    0.3234    2.2723 C.3       1 <0>         0.0000
     10 C10        -1.0631    0.5865    2.3650 C.3       1 <0>         0.0000
     11 C11         2.1713    0.8891   -0.8330 C.3       1 <0>         0.0000
     12 C12         1.5549   -1.0511   -2.0599 C.3       1 <0>         0.0000
     13 N1         -0.4565   -1.8972    0.3994 N.2       1 <0>         0.0000
     14 N2         -1.5168   -3.4055    2.6391 N.pl3     1 <0>         0.0000
     15 N3         -1.2551    0.3655   -0.8623 N.pl3     1 <0>         0.0000
     16 N4          0.0880    0.4455    1.4733 N.pl3     1 <0>         0.0000
     17 N5          1.3976   -0.3541   -0.7813 N.pl3     1 <0>         0.0000
     18 P1         -0.0588   -0.3776    0.0272 P.3       1 <0>         0.0000
     19 S1          2.0268   -2.9584    0.7447 S.2       1 <0>         0.0000
     20 H1         -0.2972   -4.1767    5.5672 H         1 <0>         0.0000
     21 H2          1.5527   -3.3681    3.7551 H         1 <0>         0.0000
     22 H3         -2.6957   -4.0801    4.2941 H         1 <0>         0.0000
     23 H4         -2.9444   -2.2081    1.7495 H         1 <0>         0.0000
     24 H5         -2.1765   -3.4148    0.6627 H         1 <0>         0.0000
     25 H6         -3.3732   -3.9491    1.8699 H         1 <0>         0.0000
     26 H7         -0.5718    2.3323   -0.5672 H         1 <0>         0.0000
     27 H8         -0.5776    1.7696   -2.2730 H         1 <0>         0.0000
     28 H9         -2.1240    2.1847   -1.4589 H         1 <0>         0.0000
     29 H10        -2.0951   -1.4431   -1.5357 H         1 <0>         0.0000
     30 H11        -2.9893    0.0410   -2.0094 H         1 <0>         0.0000
     31 H12        -1.4428   -0.3741   -2.8234 H         1 <0>         0.0000
     32 H13         2.1745    0.2172    1.6046 H         1 <0>         0.0000
     33 H14         1.4300    1.2232    2.8929 H         1 <0>         0.0000
     34 H15         1.2328   -0.5620    2.9208 H         1 <0>         0.0000
     35 H16        -1.9817    0.6786    1.7670 H         1 <0>         0.0000
     36 H17        -1.1351   -0.2991    3.0135 H         1 <0>         0.0000
     37 H18        -0.9380    1.4861    2.9855 H         1 <0>         0.0000
     38 H19         2.0653    1.4275    0.1203 H         1 <0>         0.0000
     39 H20         3.2320    0.6538   -1.0051 H         1 <0>         0.0000
     40 H21         1.7978    1.5194   -1.6535 H         1 <0>         0.0000
     41 H22         0.9800   -1.9887   -2.0402 H         1 <0>         0.0000
     42 H23         1.1844   -0.4111   -2.8743 H         1 <0>         0.0000
     43 H24         2.6186   -1.2768   -2.2259 H         1 <0>         0.0000
@<TRIPOS>BOND
     1    1    2 1
     2    1    3 2
     3    1   20 1
     4    2    4 2
     5    2   21 1
     6    3   14 1
     7    3   22 1
     8    4    5 1
     9    4   14 1
    10    5   13 1
    11    5   19 2
    12    6   14 1
    13    6   23 1
    14    6   24 1
    15    6   25 1
    16    7   15 1
    17    7   26 1
    18    7   27 1
    19    7   28 1
    20    8   15 1
    21    8   29 1
    22    8   30 1
    23    8   31 1
    24    9   16 1
    25    9   32 1
    26    9   33 1
    27    9   34 1
    28   10   16 1
    29   10   35 1
    30   10   36 1
    31   10   37 1
    32   11   17 1
    33   11   38 1
    34   11   39 1
    35   11   40 1
    36   12   17 1
    37   12   41 1
    38   12   42 1
    39   12   43 1
    40   13   18 2
    41   15   18 1
    42   16   18 1
    43   17   18 1
