@<TRIPOS>MOLECULE
*****
   65    67     0     0     0
SMALL
NO_CHARGES

@<TRIPOS>ATOM
      1 C1          3.6208   -6.3546   -1.4981 C.ar      1 <0>         0.0000
      2 C2          4.4590   -4.7860    0.1416 C.ar      1 <0>         0.0000
      3 C3          2.4524   -6.5192   -0.7506 C.ar      1 <0>         0.0000
      4 C4          3.2972   -4.9430    0.9057 C.ar      1 <0>         0.0000
      5 C5          4.6294   -5.4782   -1.0707 C.ar      1 <0>         0.0000
      6 C6          5.8514   -5.2467   -1.9018 C.ar      1 <0>         0.0000
      7 C7          5.8264   -4.2390   -2.8909 C.ar      1 <0>         0.0000
      8 C8          7.0150   -5.9981   -1.7091 C.ar      1 <0>         0.0000
      9 C9          2.3077   -5.8021    0.4352 C.ar      1 <0>         0.0000
     10 C10         7.0115   -3.9674   -3.6015 C.ar      1 <0>         0.0000
     11 C11         8.1220   -5.7228   -2.5452 C.ar      1 <0>         0.0000
     12 C12         0.3304   -0.7758   -1.1576 C.3       1 <0>         0.0000
     13 C13         1.5077    0.1689   -1.4288 C.3       1 <0>         0.0000
     14 C14         0.3569   -1.9807   -2.1054 C.3       1 <0>         0.0000
     15 C15         2.8501   -0.5758   -1.3474 C.3       1 <0>         0.0000
     16 C16         1.6963   -2.7332   -2.0316 C.3       1 <0>         0.0000
     17 C17         2.8588   -1.7739   -2.3003 C.3       1 <0>         0.0000
     18 C18         6.8884   -3.4515   -6.0487 C.3       1 <0>         0.0000
     19 C19         8.4891   -2.1535   -4.5652 C.3       1 <0>         0.0000
     20 C20        10.6021   -5.6650   -2.1479 C.3       1 <0>         0.0000
     21 C21         9.5984   -7.2095   -3.9052 C.3       1 <0>         0.0000
     22 C22         4.5304   -3.5407   -3.2059 C.3       1 <0>         0.0000
     23 C23         7.0472   -7.1227   -0.7029 C.3       1 <0>         0.0000
     24 C24         7.1290   -2.8635   -4.6442 C.3       1 <0>         0.0000
     25 C25         9.3978   -6.5431   -2.5310 C.3       1 <0>         0.0000
     26 N1          8.1055   -4.7127   -3.4241 N.ar      1 <0>         0.0000
     27 N2          4.1864   -2.5028   -2.1474 N.4       1 <0>         0.0000
     28 O1          6.8220   -8.3407   -1.4262 O.3       1 <0>         0.0000
     29 F1          1.1763   -5.9485    1.1542 F         1 <0>         0.0000
     30 H1          3.7588   -6.9219   -2.4141 H         1 <0>         0.0000
     31 H2          5.2624   -4.1542    0.5166 H         1 <0>         0.0000
     32 H3          1.6661   -7.1975   -1.0678 H         1 <0>         0.0000
     33 H4          3.1627   -4.4294    1.8528 H         1 <0>         0.0000
     34 H5         -0.6143   -0.2350   -1.2674 H         1 <0>         0.0000
     35 H6          0.3731   -1.1259   -0.1180 H         1 <0>         0.0000
     36 H7          1.4024    0.6158   -2.4254 H         1 <0>         0.0000
     37 H8          1.5138    0.9963   -0.7135 H         1 <0>         0.0000
     38 H9         -0.4527   -2.6767   -1.8675 H         1 <0>         0.0000
     39 H10         0.1874   -1.6438   -3.1360 H         1 <0>         0.0000
     40 H11         3.6771    0.1053   -1.5855 H         1 <0>         0.0000
     41 H12         3.0043   -0.9333   -0.3198 H         1 <0>         0.0000
     42 H13         1.8178   -3.1696   -1.0316 H         1 <0>         0.0000
     43 H14         1.6957   -3.5609   -2.7466 H         1 <0>         0.0000
     44 H15         2.8340   -1.4266   -3.3385 H         1 <0>         0.0000
     45 H16         7.6435   -4.2121   -6.2677 H         1 <0>         0.0000
     46 H17         6.9567   -2.6690   -6.8106 H         1 <0>         0.0000
     47 H18         5.9036   -3.9254   -6.1320 H         1 <0>         0.0000
     48 H19         9.3000   -2.8497   -4.7865 H         1 <0>         0.0000
     49 H20         8.6675   -1.7389   -3.5675 H         1 <0>         0.0000
     50 H21         8.5238   -1.3335   -5.2890 H         1 <0>         0.0000
     51 H22        10.7346   -4.8576   -2.8731 H         1 <0>         0.0000
     52 H23        11.5155   -6.2673   -2.1300 H         1 <0>         0.0000
     53 H24        10.4733   -5.2166   -1.1565 H         1 <0>         0.0000
     54 H25         9.7039   -6.4533   -4.6880 H         1 <0>         0.0000
     55 H26         8.7516   -7.8564   -4.1545 H         1 <0>         0.0000
     56 H27        10.5042   -7.8234   -3.8926 H         1 <0>         0.0000
     57 H28         4.5514   -3.0152   -4.1584 H         1 <0>         0.0000
     58 H29         3.6964   -4.2394   -3.2166 H         1 <0>         0.0000
     59 H30         8.0139   -7.1443   -0.1855 H         1 <0>         0.0000
     60 H31         6.2693   -6.9758    0.0545 H         1 <0>         0.0000
     61 H32         6.3564   -2.1064   -4.4545 H         1 <0>         0.0000
     62 H33         9.2977   -7.3421   -1.7948 H         1 <0>         0.0000
     63 H34         4.9520   -1.8200   -2.1100 H         1 <0>         0.0000
     64 H35         4.1873   -2.9900   -1.2380 H         1 <0>         0.0000
     65 H36         6.9178   -9.0863   -0.8111 H         1 <0>         0.0000
@<TRIPOS>BOND
     1    1    3 ar
     2    1    5 ar
     3    1   30 1
     4    2    4 ar
     5    2    5 ar
     6    2   31 1
     7    3    9 ar
     8    3   32 1
     9    4    9 ar
    10    4   33 1
    11    5    6 1
    12    6    7 ar
    13    6    8 ar
    14    7   10 ar
    15    7   22 1
    16    8   11 ar
    17    8   23 1
    18    9   29 1
    19   10   24 1
    20   10   26 ar
    21   11   25 1
    22   11   26 ar
    23   12   14 1
    24   12   13 1
    25   12   34 1
    26   12   35 1
    27   13   15 1
    28   13   36 1
    29   13   37 1
    30   14   16 1
    31   14   38 1
    32   14   39 1
    33   15   17 1
    34   15   40 1
    35   15   41 1
    36   16   17 1
    37   16   42 1
    38   16   43 1
    39   17   27 1
    40   17   44 1
    41   18   24 1
    42   18   45 1
    43   18   46 1
    44   18   47 1
    45   19   24 1
    46   19   48 1
    47   19   49 1
    48   19   50 1
    49   20   25 1
    50   20   51 1
    51   20   52 1
    52   20   53 1
    53   21   25 1
    54   21   54 1
    55   21   55 1
    56   21   56 1
    57   22   27 1
    58   22   57 1
    59   22   58 1
    60   23   28 1
    61   23   59 1
    62   23   60 1
    63   24   61 1
    64   25   62 1
    65   27   63 1
    66   27   64 1
    67   28   65 1
