@<TRIPOS>MOLECULE
*****
   65    67     0     0     0
SMALL
NO_CHARGES

@<TRIPOS>ATOM
      1 C1         -2.4567    3.2646   -3.0250 C.ar      1 <0>         0.0000
      2 C2         -1.7548    4.4191   -1.0211 C.ar      1 <0>         0.0000
      3 C3         -1.1719    2.7396   -3.1800 C.ar      1 <0>         0.0000
      4 C4         -0.4626    3.9007   -1.1590 C.ar      1 <0>         0.0000
      5 C5         -2.7671    4.1088   -1.9470 C.ar      1 <0>         0.0000
      6 C6         -4.1392    4.6807   -1.7673 C.ar      1 <0>         0.0000
      7 C7         -5.1518    3.9016   -1.1653 C.ar      1 <0>         0.0000
      8 C8         -4.4119    6.0025   -2.1444 C.ar      1 <0>         0.0000
      9 C9         -0.1967    3.0640   -2.2388 C.ar      1 <0>         0.0000
     10 C10        -6.4159    4.4899   -0.9505 C.ar      1 <0>         0.0000
     11 C11        -5.6951    6.5187   -1.8467 C.ar      1 <0>         0.0000
     12 C12        -0.8771    0.6305    1.0665 C.3       1 <0>         0.0000
     13 C13        -1.4294    1.7058    2.0137 C.3       1 <0>         0.0000
     14 C14        -1.7986    0.3988   -0.1397 C.3       1 <0>         0.0000
     15 C15        -2.8782    1.4067    2.4370 C.3       1 <0>         0.0000
     16 C16        -3.2355    0.0862    0.3023 C.3       1 <0>         0.0000
     17 C17        -3.8007    1.1590    1.2367 C.3       1 <0>         0.0000
     18 C18        -8.9396    4.3416   -0.6967 C.3       1 <0>         0.0000
     19 C19        -7.4183    3.7543    1.2348 C.3       1 <0>         0.0000
     20 C20        -6.3787    8.6811   -0.7984 C.3       1 <0>         0.0000
     21 C21        -7.3147    8.0006   -3.0651 C.3       1 <0>         0.0000
     22 C22        -4.8555    2.4865   -0.7443 C.3       1 <0>         0.0000
     23 C23        -3.3705    6.8563   -2.8436 C.3       1 <0>         0.0000
     24 C24        -7.5809    3.7491   -0.2994 C.3       1 <0>         0.0000
     25 C25        -6.0953    7.9547   -2.1271 C.3       1 <0>         0.0000
     26 N1         -6.6429    5.7648   -1.2750 N.ar      1 <0>         0.0000
     27 N2         -3.9781    2.4836    0.4985 N.4       1 <0>         0.0000
     28 O1         -2.8688    7.9088   -2.0129 O.3       1 <0>         0.0000
     29 F1          1.0391    2.5443   -2.3717 F         1 <0>         0.0000
     30 H1         -3.2218    3.0320   -3.7610 H         1 <0>         0.0000
     31 H2         -1.9719    5.0913   -0.1929 H         1 <0>         0.0000
     32 H3         -0.9194    2.0927   -4.0145 H         1 <0>         0.0000
     33 H4          0.3274    4.1419   -0.4545 H         1 <0>         0.0000
     34 H5         -0.7656   -0.3109    1.6188 H         1 <0>         0.0000
     35 H6          0.1233    0.9124    0.7242 H         1 <0>         0.0000
     36 H7         -0.8058    1.7816    2.9092 H         1 <0>         0.0000
     37 H8         -1.3656    2.6907    1.5291 H         1 <0>         0.0000
     38 H9         -1.7845    1.2788   -0.7952 H         1 <0>         0.0000
     39 H10        -1.4228   -0.4273   -0.7503 H         1 <0>         0.0000
     40 H11        -2.9014    0.4969    3.0462 H         1 <0>         0.0000
     41 H12        -3.2788    2.2077    3.0713 H         1 <0>         0.0000
     42 H13        -3.8940   -0.0757   -0.5562 H         1 <0>         0.0000
     43 H14        -3.2487   -0.8502    0.8712 H         1 <0>         0.0000
     44 H15        -4.8081    0.8918    1.5694 H         1 <0>         0.0000
     45 H16        -9.0482    5.3621   -0.3250 H         1 <0>         0.0000
     46 H17        -9.7442    3.7278   -0.2802 H         1 <0>         0.0000
     47 H18        -9.0550    4.3704   -1.7835 H         1 <0>         0.0000
     48 H19        -7.3736    4.7808    1.6114 H         1 <0>         0.0000
     49 H20        -6.5068    3.2357    1.5644 H         1 <0>         0.0000
     50 H21        -8.2628    3.2512    1.7150 H         1 <0>         0.0000
     51 H22        -7.2017    8.1990   -0.2632 H         1 <0>         0.0000
     52 H23        -6.6555    9.7213   -0.9947 H         1 <0>         0.0000
     53 H24        -5.4928    8.6834   -0.1555 H         1 <0>         0.0000
     54 H25        -8.1745    7.5069   -2.6047 H         1 <0>         0.0000
     55 H26        -7.1057    7.5046   -4.0192 H         1 <0>         0.0000
     56 H27        -7.5834    9.0398   -3.2773 H         1 <0>         0.0000
     57 H28        -5.7519    1.9260   -0.4895 H         1 <0>         0.0000
     58 H29        -4.3021    1.9348   -1.5020 H         1 <0>         0.0000
     59 H30        -2.5537    6.2335   -3.2208 H         1 <0>         0.0000
     60 H31        -3.8165    7.3543   -3.7067 H         1 <0>         0.0000
     61 H32        -7.5726    2.7072   -0.6414 H         1 <0>         0.0000
     62 H33        -5.2627    8.4706   -2.6066 H         1 <0>         0.0000
     63 H34        -4.3668    3.1716    1.1533 H         1 <0>         0.0000
     64 H35        -3.0578    2.8519    0.2192 H         1 <0>         0.0000
     65 H36        -2.2599    7.5237   -1.3637 H         1 <0>         0.0000
@<TRIPOS>BOND
     1    1    3 ar
     2    1    5 ar
     3    1   30 1
     4    2    4 ar
     5    2    5 ar
     6    2   31 1
     7    3    9 ar
     8    3   32 1
     9    4    9 ar
    10    4   33 1
    11    5    6 1
    12    6    7 ar
    13    6    8 ar
    14    7   10 ar
    15    7   22 1
    16    8   11 ar
    17    8   23 1
    18    9   29 1
    19   10   24 1
    20   10   26 ar
    21   11   25 1
    22   11   26 ar
    23   12   14 1
    24   12   13 1
    25   12   34 1
    26   12   35 1
    27   13   15 1
    28   13   36 1
    29   13   37 1
    30   14   16 1
    31   14   38 1
    32   14   39 1
    33   15   17 1
    34   15   40 1
    35   15   41 1
    36   16   17 1
    37   16   42 1
    38   16   43 1
    39   17   27 1
    40   17   44 1
    41   18   24 1
    42   18   45 1
    43   18   46 1
    44   18   47 1
    45   19   24 1
    46   19   48 1
    47   19   49 1
    48   19   50 1
    49   20   25 1
    50   20   51 1
    51   20   52 1
    52   20   53 1
    53   21   25 1
    54   21   54 1
    55   21   55 1
    56   21   56 1
    57   22   27 1
    58   22   57 1
    59   22   58 1
    60   23   28 1
    61   23   59 1
    62   23   60 1
    63   24   61 1
    64   25   62 1
    65   27   63 1
    66   27   64 1
    67   28   65 1
