@<TRIPOS>MOLECULE
*****
   60    63     0     0     0
SMALL
NO_CHARGES

@<TRIPOS>ATOM
      1 C1          5.0257   -6.7741    1.0815 C.1       1 <0>         0.0000
      2 C2          8.4162   -6.0272   -0.2520 C.ar      1 <0>         0.0000
      3 C3          8.1146   -5.1749   -1.3200 C.ar      1 <0>         0.0000
      4 C4          7.3836   -6.5302    0.5355 C.ar      1 <0>         0.0000
      5 C5          6.7907   -4.8270   -1.5904 C.ar      1 <0>         0.0000
      6 C6          3.4473   -4.4796   -0.1320 C.ar      1 <0>         0.0000
      7 C7          3.8871   -4.9430   -2.4586 C.ar      1 <0>         0.0000
      8 C8          2.1534   -4.0884   -0.4548 C.ar      1 <0>         0.0000
      9 C9          2.5906   -4.5466   -2.7833 C.ar      1 <0>         0.0000
     10 C10         0.8163   -2.2824   -4.1298 C.ar      1 <0>         0.0000
     11 C11        -1.4212   -3.2660   -5.4571 C.ar      1 <0>         0.0000
     12 C12         6.0482   -6.1817    0.2623 C.ar      1 <0>         0.0000
     13 C13         4.3383   -4.9156   -1.1298 C.ar      1 <0>         0.0000
     14 C14         5.7299   -5.3135   -0.8097 C.ar      1 <0>         0.0000
     15 C15         1.7026   -4.1080   -1.7869 C.ar      1 <0>         0.0000
     16 C16         0.0094   -3.2480   -3.5123 C.ar      1 <0>         0.0000
     17 C17        -1.1276   -3.7396   -4.1771 C.ar      1 <0>         0.0000
     18 C18         0.5031   -1.7925   -5.3961 C.ar      1 <0>         0.0000
     19 C19        -0.6186   -2.3053   -6.0778 C.ar      1 <0>         0.0000
     20 C20         0.3172   -3.6979   -2.1304 C.2       1 <0>         0.0000
     21 C21        -2.5135   -2.5598   -0.5012 C.2       1 <0>         0.0000
     22 C22        -1.9718   -4.7797   -3.4913 C.3       1 <0>         0.0000
     23 C23        -2.7323   -4.2230   -2.2787 C.3       1 <0>         0.0000
     24 C24        -3.2979   -5.3569   -1.4155 C.3       1 <0>         0.0000
     25 C25        -2.2721   -1.3997    1.6351 C.3       1 <0>         0.0000
     26 C26         0.7199    0.4635   -6.0746 C.3       1 <0>         0.0000
     27 C27        -0.0482   -2.1674   -8.3782 C.3       1 <0>         0.0000
     28 N1          4.2319   -7.2786    1.7698 N.1       1 <0>         0.0000
     29 N2         -0.5551   -3.7289   -1.1709 N.2       1 <0>         0.0000
     30 N3         -1.8627   -3.3061   -1.4990 N.am      1 <0>         0.0000
     31 N4         -1.6911   -2.0514    0.4707 N.am      1 <0>         0.0000
     32 O1         -3.7244   -2.3318   -0.5598 O.2       1 <0>         0.0000
     33 O2          1.3221   -0.8392   -5.9670 O.3       1 <0>         0.0000
     34 O3         -0.9782   -1.8517   -7.3269 O.3       1 <0>         0.0000
     35 H1          9.4457   -6.2983   -0.0367 H         1 <0>         0.0000
     36 H2          8.9131   -4.7730   -1.9378 H         1 <0>         0.0000
     37 H3          7.5942   -7.2037    1.3606 H         1 <0>         0.0000
     38 H4          6.5696   -4.1439   -2.4053 H         1 <0>         0.0000
     39 H5          3.7744   -4.4306    0.9017 H         1 <0>         0.0000
     40 H6          4.5472   -5.3046   -3.2424 H         1 <0>         0.0000
     41 H7          1.4762   -3.7611    0.3262 H         1 <0>         0.0000
     42 H8          2.2623   -4.5942   -3.8164 H         1 <0>         0.0000
     43 H9          1.6890   -1.8782   -3.6255 H         1 <0>         0.0000
     44 H10        -2.2843   -3.6383   -6.0028 H         1 <0>         0.0000
     45 H11        -2.7028   -5.2050   -4.1845 H         1 <0>         0.0000
     46 H12        -1.3328   -5.6075   -3.1607 H         1 <0>         0.0000
     47 H13        -3.5501   -3.5909   -2.6288 H         1 <0>         0.0000
     48 H14        -2.4869   -5.9538   -0.9853 H         1 <0>         0.0000
     49 H15        -3.9260   -6.0181   -2.0231 H         1 <0>         0.0000
     50 H16        -3.9109   -4.9524   -0.6075 H         1 <0>         0.0000
     51 H17        -1.4923   -0.8315    2.1491 H         1 <0>         0.0000
     52 H18        -2.7183   -2.1147    2.3390 H         1 <0>         0.0000
     53 H19        -3.0542   -0.7139    1.3068 H         1 <0>         0.0000
     54 H20         1.4753    1.1107   -6.5244 H         1 <0>         0.0000
     55 H21         0.4552    0.8426   -5.0805 H         1 <0>         0.0000
     56 H22        -0.1725    0.4351   -6.7073 H         1 <0>         0.0000
     57 H23        -0.4792   -1.7583   -9.2938 H         1 <0>         0.0000
     58 H24         0.0559   -3.2547   -8.4764 H         1 <0>         0.0000
     59 H25         0.9311   -1.7179   -8.1910 H         1 <0>         0.0000
     60 H26        -0.7908   -2.5067    0.5599 H         1 <0>         0.0000
@<TRIPOS>BOND
     1    1   12 1
     2    1   28 3
     3    2    3 ar
     4    2    4 ar
     5    2   35 1
     6    3    5 ar
     7    3   36 1
     8    4   12 ar
     9    4   37 1
    10    5   14 ar
    11    5   38 1
    12    6    8 ar
    13    6   13 ar
    14    6   39 1
    15    7    9 ar
    16    7   13 ar
    17    7   40 1
    18    8   15 ar
    19    8   41 1
    20    9   15 ar
    21    9   42 1
    22   10   16 ar
    23   10   18 ar
    24   10   43 1
    25   11   17 ar
    26   11   19 ar
    27   11   44 1
    28   12   14 ar
    29   13   14 1
    30   15   20 1
    31   16   17 ar
    32   16   20 1
    33   17   22 1
    34   18   19 ar
    35   18   33 1
    36   19   34 1
    37   20   29 2
    38   21   30 am
    39   21   31 am
    40   21   32 2
    41   22   23 1
    42   22   45 1
    43   22   46 1
    44   23   24 1
    45   23   30 1
    46   23   47 1
    47   24   48 1
    48   24   49 1
    49   24   50 1
    50   25   31 1
    51   25   51 1
    52   25   52 1
    53   25   53 1
    54   26   33 1
    55   26   54 1
    56   26   55 1
    57   26   56 1
    58   27   34 1
    59   27   57 1
    60   27   58 1
    61   27   59 1
    62   29   30 1
    63   31   60 1
