@<TRIPOS>MOLECULE
*****
   67    71     0     0     0
SMALL
NO_CHARGES

@<TRIPOS>ATOM
      1 C1         -1.1265   -2.9793   -4.6441 C.ar      1 <0>         0.0000
      2 C2         -1.0502    2.9709   -8.8687 C.ar      1 <0>         0.0000
      3 C3         -0.5584   -2.0116   -5.4739 C.ar      1 <0>         0.0000
      4 C4         -2.5080   -3.1831   -4.6217 C.ar      1 <0>         0.0000
      5 C5         -0.5114    1.7383   -8.4862 C.ar      1 <0>         0.0000
      6 C6         -2.7405   -1.4578   -6.3593 C.ar      1 <0>         0.0000
      7 C7         -2.3014    3.3696   -8.3966 C.ar      1 <0>         0.0000
      8 C8         -1.3507   -1.2242   -6.3333 C.ar      1 <0>         0.0000
      9 C9         -3.2796   -2.4104   -5.4951 C.ar      1 <0>         0.0000
     10 C10        -2.9787    2.4697   -7.5412 C.ar      1 <0>         0.0000
     11 C11        -1.2536    0.9355   -7.6127 C.ar      1 <0>         0.0000
     12 C12        -4.2289    4.8461   -8.4568 C.2       1 <0>         0.0000
     13 C13        -4.1853    1.9678   -4.7527 C.3       1 <0>         0.0000
     14 C14        -6.3570    2.0134   -5.9194 C.3       1 <0>         0.0000
     15 C15        -6.6280   -4.8015   -5.3886 C.3       1 <0>         0.0000
     16 C16        -5.0434   -4.9139   -6.8823 C.3       1 <0>         0.0000
     17 C17        -4.5931    0.7822   -3.8985 C.3       1 <0>         0.0000
     18 C18        -6.8283    0.7952   -5.1265 C.3       1 <0>         0.0000
     19 C19        -5.0344    3.6309   -7.9897 C.3       1 <0>         0.0000
     20 C20        -4.8488    1.8754   -6.1352 C.3       1 <0>         0.0000
     21 C21        -6.3279   -5.7105   -6.5939 C.3       1 <0>         0.0000
     22 C22        -5.5280    2.8456   -9.2203 C.3       1 <0>         0.0000
     23 C23        -2.0722    5.6895   -9.2635 C.3       1 <0>         0.0000
     24 C24        -6.6955    1.4387   -2.7052 C.3       1 <0>         0.0000
     25 N1         -2.4598    1.2994   -7.1635 N.ar      1 <0>         0.0000
     26 N2         -2.8857    4.6194   -8.6841 N.am      1 <0>         0.0000
     27 N3         -4.2303    2.8344   -7.0530 N.pl3     1 <0>         0.0000
     28 N4         -5.2432   -4.2324   -5.5554 N.pl3     1 <0>         0.0000
     29 N5         -0.7319   -0.2873   -7.1613 N.pl3     1 <0>         0.0000
     30 N6         -6.1031    0.6065   -3.7993 N.4       1 <0>         0.0000
     31 O1         -4.7782    5.9207   -8.6649 O.2       1 <0>         0.0000
     32 O2         -5.6123   -2.1910   -4.1508 O.2       1 <0>         0.0000
     33 O3         -5.6078   -1.8623   -6.6363 O.2       1 <0>         0.0000
     34 F1         -7.2593   -5.6859   -7.5823 F         1 <0>         0.0000
     35 F2         -6.1072   -7.0100   -6.2612 F         1 <0>         0.0000
     36 S1         -5.0551   -2.5797   -5.4715 S.o2      1 <0>         0.0000
     37 H1         -0.4854   -3.5672   -3.9941 H         1 <0>         0.0000
     38 H2         -0.4819    3.6141   -9.5314 H         1 <0>         0.0000
     39 H3          0.5178   -1.8559   -5.4499 H         1 <0>         0.0000
     40 H4         -2.9663   -3.9133   -3.9640 H         1 <0>         0.0000
     41 H5          0.4587    1.4221   -8.8572 H         1 <0>         0.0000
     42 H6         -3.3770   -0.9158   -7.0420 H         1 <0>         0.0000
     43 H7         -4.4384    2.9253   -4.2844 H         1 <0>         0.0000
     44 H8         -3.0997    1.9261   -4.8516 H         1 <0>         0.0000
     45 H9         -6.9150    1.9915   -6.8583 H         1 <0>         0.0000
     46 H10        -6.6099    2.9524   -5.4150 H         1 <0>         0.0000
     47 H11        -7.4341   -4.0939   -5.5965 H         1 <0>         0.0000
     48 H12        -6.7664   -5.2967   -4.4282 H         1 <0>         0.0000
     49 H13        -4.1191   -5.4896   -6.9287 H         1 <0>         0.0000
     50 H14        -5.1545   -4.2475   -7.7414 H         1 <0>         0.0000
     51 H15        -4.2093   -0.1384   -4.3309 H         1 <0>         0.0000
     52 H16        -4.2195    0.8513   -2.8753 H         1 <0>         0.0000
     53 H17        -7.8929    0.8492   -4.8914 H         1 <0>         0.0000
     54 H18        -6.6446   -0.1124   -5.7021 H         1 <0>         0.0000
     55 H19        -5.8820    4.0515   -7.4505 H         1 <0>         0.0000
     56 H20        -4.6738    0.8672   -6.5273 H         1 <0>         0.0000
     57 H21        -4.6850    2.4662   -9.8053 H         1 <0>         0.0000
     58 H22        -6.1291    3.4971   -9.8601 H         1 <0>         0.0000
     59 H23        -6.1420    1.9899   -8.9243 H         1 <0>         0.0000
     60 H24        -1.7902    5.4509  -10.2944 H         1 <0>         0.0000
     61 H25        -1.1693    5.8385   -8.6646 H         1 <0>         0.0000
     62 H26        -2.6680    6.6003   -9.2630 H         1 <0>         0.0000
     63 H27        -6.5460    2.4932   -2.9344 H         1 <0>         0.0000
     64 H28        -7.7616    1.2229   -2.6312 H         1 <0>         0.0000
     65 H29        -6.2024    1.1909   -1.7650 H         1 <0>         0.0000
     66 H30         0.2713   -0.3818   -7.2529 H         1 <0>         0.0000
     67 H31        -6.2243   -0.3943   -3.5737 H         1 <0>         0.0000
@<TRIPOS>BOND
     1    1    3 ar
     2    1    4 ar
     3    1   37 1
     4    2    5 ar
     5    2    7 ar
     6    2   38 1
     7    3    8 ar
     8    3   39 1
     9    4    9 ar
    10    4   40 1
    11    5   11 ar
    12    5   41 1
    13    6    8 ar
    14    6    9 ar
    15    6   42 1
    16    7   10 ar
    17    7   26 1
    18    8   29 1
    19    9   36 1
    20   10   25 ar
    21   10   27 1
    22   11   25 ar
    23   11   29 1
    24   12   19 1
    25   12   26 am
    26   12   31 2
    27   13   17 1
    28   13   20 1
    29   13   43 1
    30   13   44 1
    31   14   18 1
    32   14   20 1
    33   14   45 1
    34   14   46 1
    35   15   21 1
    36   15   28 1
    37   15   47 1
    38   15   48 1
    39   16   21 1
    40   16   28 1
    41   16   49 1
    42   16   50 1
    43   17   30 1
    44   17   51 1
    45   17   52 1
    46   18   30 1
    47   18   53 1
    48   18   54 1
    49   19   22 1
    50   19   27 1
    51   19   55 1
    52   20   27 1
    53   20   56 1
    54   21   34 1
    55   21   35 1
    56   22   57 1
    57   22   58 1
    58   22   59 1
    59   23   26 1
    60   23   60 1
    61   23   61 1
    62   23   62 1
    63   24   30 1
    64   24   63 1
    65   24   64 1
    66   24   65 1
    67   28   36 1
    68   29   66 1
    69   30   67 1
    70   32   36 2
    71   33   36 2
