@<TRIPOS>MOLECULE
*****
   40    40     0     0     0
SMALL
NO_CHARGES

@<TRIPOS>ATOM
      1 C1          1.2870    1.0252    1.5555 C.2       1 <0>         0.0000
      2 C2          0.2114    0.9940   -0.7453 C.3       1 <0>         0.0000
      3 C3          0.1180   -0.9743    0.6462 C.3       1 <0>         0.0000
      4 C4         -0.2709   -0.1915   -1.5853 C.3       1 <0>         0.0000
      5 C5         -0.8552   -1.1442   -0.5232 C.3       1 <0>         0.0000
      6 C6         -1.2360    0.2336   -2.6825 C.3       1 <0>         0.0000
      7 C7          0.3856   -3.0959   -1.4996 C.3       1 <0>         0.0000
      8 C8         -1.4927   -3.4853    0.1202 C.3       1 <0>         0.0000
      9 C9          1.9310    3.0613    2.8173 C.3       1 <0>         0.0000
     10 C10        -0.3779    2.8354    1.8378 C.3       1 <0>         0.0000
     11 C11        -0.9655   -2.5864   -0.9979 C.3       1 <0>         0.0000
     12 C12         1.1031    2.5183    1.6562 C.3       1 <0>         0.0000
     13 N1          0.5861    0.4041    0.5368 N.am      1 <0>         0.0000
     14 N2          1.5758    3.0612    0.3863 N.3       1 <0>         0.0000
     15 O1          2.0261    0.4334    2.3439 O.2       1 <0>         0.0000
     16 O2         -2.1476   -0.6949   -0.1163 O.3       1 <0>         0.0000
     17 H1          1.0639    1.5063   -1.2008 H         1 <0>         0.0000
     18 H2         -0.5830    1.7247   -0.5566 H         1 <0>         0.0000
     19 H3         -0.3425   -1.1285    1.6275 H         1 <0>         0.0000
     20 H4          0.9996   -1.6190    0.5552 H         1 <0>         0.0000
     21 H5          0.6033   -0.6645   -2.0498 H         1 <0>         0.0000
     22 H6         -2.1156    0.7077   -2.2451 H         1 <0>         0.0000
     23 H7         -1.5547   -0.6359   -3.2589 H         1 <0>         0.0000
     24 H8         -0.7509    0.9430   -3.3542 H         1 <0>         0.0000
     25 H9          1.1375   -3.0783   -0.7030 H         1 <0>         0.0000
     26 H10         0.7516   -2.4753   -2.3242 H         1 <0>         0.0000
     27 H11         0.3042   -4.1249   -1.8656 H         1 <0>         0.0000
     28 H12        -0.8178   -3.4837    0.9830 H         1 <0>         0.0000
     29 H13        -1.5979   -4.5191   -0.2256 H         1 <0>         0.0000
     30 H14        -2.4766   -3.1444    0.4596 H         1 <0>         0.0000
     31 H15         1.8212    4.1475    2.9207 H         1 <0>         0.0000
     32 H16         1.6330    2.6020    3.7667 H         1 <0>         0.0000
     33 H17         2.9983    2.8609    2.6672 H         1 <0>         0.0000
     34 H18        -0.5473    3.9156    1.9147 H         1 <0>         0.0000
     35 H19        -0.9784    2.4600    1.0004 H         1 <0>         0.0000
     36 H20        -0.7719    2.3684    2.7481 H         1 <0>         0.0000
     37 H21        -1.6775   -2.6257   -1.8331 H         1 <0>         0.0000
     38 H22         2.5099    3.4075    0.3422 H         1 <0>         0.0000
     39 H23         0.9010    3.2541   -0.3222 H         1 <0>         0.0000
     40 H24        -2.0493    0.2382    0.1265 H         1 <0>         0.0000
@<TRIPOS>BOND
     1    1   12 1
     2    1   13 am
     3    1   15 2
     4    2    4 1
     5    2   13 1
     6    2   17 1
     7    2   18 1
     8    3    5 1
     9    3   13 1
    10    3   19 1
    11    3   20 1
    12    4    5 1
    13    4    6 1
    14    4   21 1
    15    5   11 1
    16    5   16 1
    17    6   22 1
    18    6   23 1
    19    6   24 1
    20    7   11 1
    21    7   25 1
    22    7   26 1
    23    7   27 1
    24    8   11 1
    25    8   28 1
    26    8   29 1
    27    8   30 1
    28    9   12 1
    29    9   31 1
    30    9   32 1
    31    9   33 1
    32   10   12 1
    33   10   34 1
    34   10   35 1
    35   10   36 1
    36   11   37 1
    37   12   14 1
    38   14   38 1
    39   14   39 1
    40   16   40 1
