@<TRIPOS>MOLECULE
*****
   43    45     0     0     0
SMALL
NO_CHARGES

@<TRIPOS>ATOM
      1 C1         -1.9494   -2.8642    8.4023 C.ar      1 <0>         0.0000
      2 C2         -2.1790   -1.4755    8.5002 C.ar      1 <0>         0.0000
      3 C3         -1.5924   -3.4368    7.1822 C.ar      1 <0>         0.0000
      4 C4         -2.0451   -0.6287    7.3985 C.ar      1 <0>         0.0000
      5 C5         -1.4714   -2.5967    6.0715 C.ar      1 <0>         0.0000
      6 C6         -1.6763   -1.2142    6.1825 C.ar      1 <0>         0.0000
      7 C7         -1.1407   -2.8876    4.6663 C.2       1 <0>         0.0000
      8 C8         -1.6388   -0.4678    1.9232 C.2       1 <0>         0.0000
      9 C9         -1.3461    1.7378   -0.7355 C.3       1 <0>         0.0000
     10 C10        -2.1974    0.5734   -0.2211 C.3       1 <0>         0.0000
     11 C11        -0.2236   -0.8761   -0.1154 C.3       1 <0>         0.0000
     12 C12         0.7132    0.2567   -0.5809 C.3       1 <0>         0.0000
     13 C13        -0.0832    1.2560   -1.4651 C.3       1 <0>         0.0000
     14 C14         1.4333    0.9043    0.6108 C.3       1 <0>         0.0000
     15 C15         0.7667    2.4438   -1.9246 C.3       1 <0>         0.0000
     16 C16        -0.7021   -1.3772    2.7331 C.3       1 <0>         0.0000
     17 N1         -1.4259   -0.5848    4.9521 N.pl3     1 <0>         0.0000
     18 N2         -1.2459   -1.6531    4.0339 N.am      1 <0>         0.0000
     19 N3         -1.3820   -0.3335    0.5946 N.am      1 <0>         0.0000
     20 O1         -0.8177   -3.9387    4.1100 O.2       1 <0>         0.0000
     21 O2         -2.5728    0.1187    2.4868 O.2       1 <0>         0.0000
     22 O3         -0.5744    0.5490   -2.6281 O.3       1 <0>         0.0000
     23 H1         -2.0568   -3.4864    9.2862 H         1 <0>         0.0000
     24 H2         -2.4620   -1.0514    9.4602 H         1 <0>         0.0000
     25 H3         -1.4189   -4.5042    7.0791 H         1 <0>         0.0000
     26 H4         -2.2126    0.4413    7.4864 H         1 <0>         0.0000
     27 H5         -1.9386    2.3446   -1.4279 H         1 <0>         0.0000
     28 H6         -1.0597    2.3790    0.1040 H         1 <0>         0.0000
     29 H7         -3.0230    0.9285    0.3933 H         1 <0>         0.0000
     30 H8         -2.6018    0.0056   -1.0654 H         1 <0>         0.0000
     31 H9         -0.5874   -1.4308   -0.9864 H         1 <0>         0.0000
     32 H10         0.3221   -1.5744    0.5173 H         1 <0>         0.0000
     33 H11         1.4761   -0.2042   -1.2255 H         1 <0>         0.0000
     34 H12         0.7320    1.3872    1.2979 H         1 <0>         0.0000
     35 H13         2.1574    1.6562    0.2879 H         1 <0>         0.0000
     36 H14         1.9843    0.1463    1.1777 H         1 <0>         0.0000
     37 H15         1.6946    2.1032   -2.4020 H         1 <0>         0.0000
     38 H16         1.0398    3.1004   -1.0944 H         1 <0>         0.0000
     39 H17         0.2019    3.0319   -2.6539 H         1 <0>         0.0000
     40 H18         0.2837   -0.8992    2.8176 H         1 <0>         0.0000
     41 H19        -0.5684   -2.3542    2.2633 H         1 <0>         0.0000
     42 H20        -2.1691    0.0187    4.5919 H         1 <0>         0.0000
     43 H21         0.1907    0.2966   -3.1698 H         1 <0>         0.0000
@<TRIPOS>BOND
     1    1    2 ar
     2    1    3 ar
     3    1   23 1
     4    2    4 ar
     5    2   24 1
     6    3    5 ar
     7    3   25 1
     8    4    6 ar
     9    4   26 1
    10    5    6 ar
    11    5    7 1
    12    6   17 1
    13    7   18 am
    14    7   20 2
    15    8   16 1
    16    8   19 am
    17    8   21 2
    18    9   10 1
    19    9   13 1
    20    9   27 1
    21    9   28 1
    22   10   19 1
    23   10   29 1
    24   10   30 1
    25   11   12 1
    26   11   19 1
    27   11   31 1
    28   11   32 1
    29   12   13 1
    30   12   14 1
    31   12   33 1
    32   13   15 1
    33   13   22 1
    34   14   34 1
    35   14   35 1
    36   14   36 1
    37   15   37 1
    38   15   38 1
    39   15   39 1
    40   16   18 1
    41   16   40 1
    42   16   41 1
    43   17   18 1
    44   17   42 1
    45   22   43 1
