@<TRIPOS>MOLECULE
*****
   20    20     0     0     0
SMALL
NO_CHARGES

@<TRIPOS>ATOM
      1 C1          1.6892   -0.9486   -0.0027 C.ar      1 <0>         0.0000
      2 C2          0.6509   -0.3338    0.6996 C.ar      1 <0>         0.0000
      3 C3          2.7260   -1.5635    2.1088 C.ar      1 <0>         0.0000
      4 C4          1.6957   -0.9480    2.8296 C.ar      1 <0>         0.0000
      5 C5          2.7157   -1.5519    0.7173 C.ar      1 <0>         0.0000
      6 C6          0.6677   -0.3391    2.0941 C.ar      1 <0>         0.0000
      7 C7          1.7026   -0.9683    4.3460 C.3       1 <0>         0.0000
      8 C8          4.8349   -1.5128   -0.3132 C.3       1 <0>         0.0000
      9 O1          0.7258   -1.8506    4.8998 O.3       1 <0>         0.0000
     10 O2          3.7342   -2.2333    0.0210 O.3       1 <0>         0.0000
     11 F1          5.4724   -1.0041    0.7673 F         1 <0>         0.0000
     12 F2          4.5462   -0.4675   -1.1240 F         1 <0>         0.0000
     13 F3          5.6769   -2.3274   -0.9570 F         1 <0>         0.0000
     14 Cl1        -0.6657    0.4457    2.9420 Cl        1 <0>         0.0000
     15 H1          1.7013   -0.9622   -1.0875 H         1 <0>         0.0000
     16 H2         -0.1650    0.1446    0.1677 H         1 <0>         0.0000
     17 H3          3.5385   -2.0584    2.6322 H         1 <0>         0.0000
     18 H4          2.6673   -1.3398    4.6966 H         1 <0>         0.0000
     19 H5          1.5739    0.0512    4.7314 H         1 <0>         0.0000
     20 H6         -0.1502   -1.4592    4.7511 H         1 <0>         0.0000
@<TRIPOS>BOND
     1    1    2 ar
     2    1    5 ar
     3    1   15 1
     4    2    6 ar
     5    2   16 1
     6    3    4 ar
     7    3    5 ar
     8    3   17 1
     9    4    6 ar
    10    4    7 1
    11    5   10 1
    12    6   14 1
    13    7    9 1
    14    7   18 1
    15    7   19 1
    16    8   10 1
    17    8   11 1
    18    8   12 1
    19    8   13 1
    20    9   20 1
