@<TRIPOS>MOLECULE
*****
   14    14     0     0     0
SMALL
NO_CHARGES

@<TRIPOS>ATOM
      1 C1          1.9557   -0.9458   -0.0788 C.ar      1 <0>         0.0000
      2 C2          1.7866   -1.1852    2.6984 C.ar      1 <0>         0.0000
      3 C3          0.8136   -0.4987    0.5963 C.ar      1 <0>         0.0000
      4 C4          2.9077   -1.6499    2.0183 C.ar      1 <0>         0.0000
      5 C5          0.7156   -0.6270    1.9926 C.ar      1 <0>         0.0000
      6 C6          3.0065   -1.5254    0.6271 C.ar      1 <0>         0.0000
      7 N1         -0.2427    0.1083   -0.2380 N.pl3     1 <0>         0.0000
      8 O1         -1.4144   -0.0621    0.0991 O.3       1 <0>         0.0000
      9 O2          0.1290    0.7297   -1.2391 O.2       1 <0>         0.0000
     10 F1          3.9203   -2.1625    2.7343 F         1 <0>         0.0000
     11 Br1        -0.7520   -0.0020    3.0273 Br        1 <0>         0.0000
     12 I1          4.4490   -2.8084   -0.4555 I         1 <0>         0.0000
     13 H1          1.9970   -0.8348   -1.1563 H         1 <0>         0.0000
     14 H2          1.7602   -1.2601    3.7803 H         1 <0>         0.0000
@<TRIPOS>BOND
     1    1    3 ar
     2    1    6 ar
     3    1   13 1
     4    2    4 ar
     5    2    5 ar
     6    2   14 1
     7    3    5 ar
     8    3    7 1
     9    4    6 ar
    10    4   10 1
    11    5   11 1
    12    6   12 1
    13    7    8 1
    14    7    9 2
