@<TRIPOS>MOLECULE
*****
   23    23     0     0     0
SMALL
NO_CHARGES

@<TRIPOS>ATOM
      1 C1          2.2874   -1.1075   -0.1895 C.ar      1 <0>         0.0000
      2 C2          3.2245   -1.7737    1.9483 C.ar      1 <0>         0.0000
      3 C3          1.2424   -0.4252    0.4494 C.ar      1 <0>         0.0000
      4 C4          2.1901   -1.0895    2.5724 C.ar      1 <0>         0.0000
      5 C5          1.1965   -0.4302    1.8516 C.ar      1 <0>         0.0000
      6 C6          3.2653   -1.7837    0.5463 C.ar      1 <0>         0.0000
      7 C7         -1.4533    3.4586   -0.8802 C.3       1 <0>         0.0000
      8 C8         -0.8065    2.1058   -1.1993 C.3       1 <0>         0.0000
      9 C9         -0.2389    1.4484    0.0490 C.3       1 <0>         0.0000
     10 O1          0.3103    0.1674   -0.3459 O.3       1 <0>         0.0000
     11 F1          2.1195   -1.0722    3.9208 F         1 <0>         0.0000
     12 F2          0.1896    0.1723    2.5274 F         1 <0>         0.0000
     13 S1          4.5311   -2.6419   -0.3696 S.3       1 <0>         0.0000
     14 H1          2.3092   -1.0854   -1.2747 H         1 <0>         0.0000
     15 H2          3.9604   -2.2824    2.5623 H         1 <0>         0.0000
     16 H3         -2.2765    3.3495   -0.1652 H         1 <0>         0.0000
     17 H4         -0.7277    4.1576   -0.4488 H         1 <0>         0.0000
     18 H5         -1.8590    3.9189   -1.7862 H         1 <0>         0.0000
     19 H6         -0.0024    2.2309   -1.9328 H         1 <0>         0.0000
     20 H7         -1.5437    1.4297   -1.6467 H         1 <0>         0.0000
     21 H8          0.5566    2.0613    0.4899 H         1 <0>         0.0000
     22 H9         -1.0173    1.2989    0.8024 H         1 <0>         0.0000
     23 H10         5.3095   -2.9546    0.6853 H         1 <0>         0.0000
@<TRIPOS>BOND
     1    1    3 ar
     2    1    6 ar
     3    1   14 1
     4    2    4 ar
     5    2    6 ar
     6    2   15 1
     7    3    5 ar
     8    3   10 1
     9    4    5 ar
    10    4   11 1
    11    5   12 1
    12    6   13 1
    13    7    8 1
    14    7   16 1
    15    7   17 1
    16    7   18 1
    17    8    9 1
    18    8   19 1
    19    8   20 1
    20    9   10 1
    21    9   21 1
    22    9   22 1
    23   13   23 1
