@<TRIPOS>MOLECULE
*****
   35    36     0     0     0
SMALL
NO_CHARGES

@<TRIPOS>ATOM
      1 C1          1.6044   -5.1899    0.0105 C.2       1 <0>         0.0000
      2 C2          0.3505   -5.2103   -0.6311 C.2       1 <0>         0.0000
      3 C3          0.6705   -1.2181   -1.9193 C.2       1 <0>         0.0000
      4 C4          0.2311   -0.4641    1.7313 C.3       1 <0>         0.0000
      5 C5          0.5752   -1.4378    0.5906 C.3       1 <0>         0.0000
      6 C6         -0.9903    0.0385   -0.6366 C.3       1 <0>         0.0000
      7 C7         -0.7002    1.3063    0.1991 C.3       1 <0>         0.0000
      8 C8          0.3753    1.0030    1.2874 C.3       1 <0>         0.0000
      9 C9         -2.0297    1.8518    0.7346 C.3       1 <0>         0.0000
     10 C10         0.3158    1.9464    2.4850 C.3       1 <0>         0.0000
     11 C11         1.7680   -2.2932   -1.9609 C.3       1 <0>         0.0000
     12 N1          2.2754   -4.1064   -0.4008 N.2       1 <0>         0.0000
     13 N2          0.2639   -4.1399   -1.4313 N.2       1 <0>         0.0000
     14 N3          1.4324   -3.5208   -1.2559 N.pl3     1 <0>         0.0000
     15 N4          0.1668   -0.8582   -0.7006 N.am      1 <0>         0.0000
     16 O1          0.3246   -0.6916   -2.9766 O.2       1 <0>         0.0000
     17 O2          1.6949    1.2073    0.7326 O.3       1 <0>         0.0000
     18 H1          2.0400   -5.8770    0.7230 H         1 <0>         0.0000
     19 H2         -0.4642   -5.9179   -0.5582 H         1 <0>         0.0000
     20 H3         -0.7938   -0.6315    2.0814 H         1 <0>         0.0000
     21 H4          0.8953   -0.6666    2.5766 H         1 <0>         0.0000
     22 H5          1.6509   -1.6134    0.5814 H         1 <0>         0.0000
     23 H6          0.0810   -2.4030    0.7532 H         1 <0>         0.0000
     24 H7         -1.8229   -0.5190   -0.1864 H         1 <0>         0.0000
     25 H8         -1.2746    0.2941   -1.6560 H         1 <0>         0.0000
     26 H9         -0.2578    2.0668   -0.4549 H         1 <0>         0.0000
     27 H10        -2.4768    1.1706    1.4682 H         1 <0>         0.0000
     28 H11        -2.7472    1.9650   -0.0858 H         1 <0>         0.0000
     29 H12        -1.9116    2.8296    1.2071 H         1 <0>         0.0000
     30 H13         0.3553    2.9891    2.1569 H         1 <0>         0.0000
     31 H14         1.1814    1.7624    3.1279 H         1 <0>         0.0000
     32 H15        -0.5923    1.7956    3.0744 H         1 <0>         0.0000
     33 H16         2.6979   -1.9280   -1.5207 H         1 <0>         0.0000
     34 H17         1.9359   -2.5094   -3.0167 H         1 <0>         0.0000
     35 H18         1.7017    0.8202   -0.1578 H         1 <0>         0.0000
@<TRIPOS>BOND
     1    1    2 1
     2    1   12 2
     3    1   18 1
     4    2   13 2
     5    2   19 1
     6    3   11 1
     7    3   15 am
     8    3   16 2
     9    4    5 1
    10    4    8 1
    11    4   20 1
    12    4   21 1
    13    5   15 1
    14    5   22 1
    15    5   23 1
    16    6    7 1
    17    6   15 1
    18    6   24 1
    19    6   25 1
    20    7    8 1
    21    7    9 1
    22    7   26 1
    23    8   10 1
    24    8   17 1
    25    9   27 1
    26    9   28 1
    27    9   29 1
    28   10   30 1
    29   10   31 1
    30   10   32 1
    31   11   14 1
    32   11   33 1
    33   11   34 1
    34   12   14 1
    35   13   14 1
    36   17   35 1
