@<TRIPOS>MOLECULE
*****
   25    26     0     0     0
SMALL
NO_CHARGES

@<TRIPOS>ATOM
      1 C1          2.1953   -2.4325    1.9249 C.ar      1 <0>         0.0000
      2 C2          0.9980   -1.8543    2.3317 C.ar      1 <0>         0.0000
      3 C3          2.9857   -1.7901    0.9740 C.ar      1 <0>         0.0000
      4 C4         -3.7520    4.2878    1.4868 C.2       1 <0>         0.0000
      5 C5          0.5450   -0.6260    1.8077 C.ar      1 <0>         0.0000
      6 C6          2.5673   -0.5675    0.4422 C.ar      1 <0>         0.0000
      7 C7          1.3586    0.0245    0.8472 C.ar      1 <0>         0.0000
      8 C8         -3.1222    2.4062    2.3603 C.2       1 <0>         0.0000
      9 C9         -0.7397   -0.1577    2.3377 C.2       1 <0>         0.0000
     10 N1         -4.1817    4.2707    2.7234 N.2       1 <0>         0.0000
     11 N2         -3.7673    3.0664    3.2934 N.2       1 <0>         0.0000
     12 N3         -1.3867    0.8756    1.9278 N.2       1 <0>         0.0000
     13 N4         -3.0797    3.1225    1.1905 N.pl3     1 <0>         0.0000
     14 N5         -2.5504    2.7852   -0.0697 N.3       1 <0>         0.0000
     15 N6         -2.6035    1.1228    2.5020 N.pl3     1 <0>         0.0000
     16 Cl1         3.6018    0.1994   -0.7377 Cl        1 <0>         0.0000
     17 Cl2         0.9209    1.5655    0.1575 Cl        1 <0>         0.0000
     18 H1          2.5162   -3.3810    2.3447 H         1 <0>         0.0000
     19 H2          0.3835   -2.3590    3.0724 H         1 <0>         0.0000
     20 H3          3.9242   -2.2200    0.6401 H         1 <0>         0.0000
     21 H4         -3.8756    5.0828    0.7643 H         1 <0>         0.0000
     22 H5         -1.1514   -0.7824    3.1410 H         1 <0>         0.0000
     23 H6         -3.1091    2.0183   -0.4468 H         1 <0>         0.0000
     24 H7         -1.6114    2.4182    0.0866 H         1 <0>         0.0000
     25 H8         -2.7967    0.7224    3.4222 H         1 <0>         0.0000
@<TRIPOS>BOND
     1    1    2 ar
     2    1    3 ar
     3    1   18 1
     4    2    5 ar
     5    2   19 1
     6    3    6 ar
     7    3   20 1
     8    4   10 2
     9    4   13 1
    10    4   21 1
    11    5    7 ar
    12    5    9 1
    13    6    7 ar
    14    6   16 1
    15    7   17 1
    16    8   11 2
    17    8   13 1
    18    8   15 1
    19    9   12 2
    20    9   22 1
    21   10   11 1
    22   12   15 1
    23   13   14 1
    24   14   23 1
    25   14   24 1
    26   15   25 1
