@<TRIPOS>MOLECULE
*****
   20    20     0     0     0
SMALL
NO_CHARGES

@<TRIPOS>ATOM
      1 C1          3.5629    0.9929    0.0186 C.2       1 <0>         0.0000
      2 C2          4.1806    1.3623    1.2508 C.2       1 <0>         0.0000
      3 C3          2.7710   -0.0993    0.2836 C.2       1 <0>         0.0000
      4 C4          3.7122    0.4670    2.1751 C.2       1 <0>         0.0000
      5 C5          2.1243   -0.7962   -2.0331 C.3       1 <0>         0.0000
      6 C6          1.8429   -0.9459   -0.5362 C.3       1 <0>         0.0000
      7 N1          2.0158   -2.3644   -0.1815 N.3       1 <0>         0.0000
      8 N2          3.9838    0.3312    3.5670 N.pl3     1 <0>         0.0000
      9 O1          4.7660    1.1623    4.0559 O.3       1 <0>         0.0000
     10 O2          3.4311   -0.5887    4.1836 O.2       1 <0>         0.0000
     11 O3          2.8544   -0.4253    1.6110 O.3       1 <0>         0.0000
     12 O4          1.8049    0.5404   -2.4304 O.3       1 <0>         0.0000
     13 H1          3.6592    1.4753   -0.9429 H         1 <0>         0.0000
     14 H2          4.8724    2.1692    1.4460 H         1 <0>         0.0000
     15 H3          3.1766   -1.0395   -2.2274 H         1 <0>         0.0000
     16 H4          1.4992   -1.5240   -2.5688 H         1 <0>         0.0000
     17 H5          0.8193   -0.5751   -0.3543 H         1 <0>         0.0000
     18 H6          1.2143   -2.8951   -0.5171 H         1 <0>         0.0000
     19 H7          2.0358   -2.4717    0.8308 H         1 <0>         0.0000
     20 H8          1.9127    0.6065   -3.3912 H         1 <0>         0.0000
@<TRIPOS>BOND
     1    1    2 1
     2    1    3 2
     3    1   13 1
     4    2    4 2
     5    2   14 1
     6    3    6 1
     7    3   11 1
     8    4    8 1
     9    4   11 1
    10    5    6 1
    11    5   12 1
    12    5   15 1
    13    5   16 1
    14    6    7 1
    15    6   17 1
    16    7   18 1
    17    7   19 1
    18    8    9 1
    19    8   10 2
    20   12   20 1
