@<TRIPOS>MOLECULE
*****
   26    26     0     0     0
SMALL
NO_CHARGES

@<TRIPOS>ATOM
      1 C1          2.1694   -1.4501    0.5245 C.ar      1 <0>         0.0000
      2 C2          0.9538   -1.1975    1.1734 C.ar      1 <0>         0.0000
      3 C3          3.3245   -1.2845    2.6216 C.ar      1 <0>         0.0000
      4 C4          3.3710   -1.4971    1.2352 C.ar      1 <0>         0.0000
      5 C5          0.9197   -0.9865    2.5537 C.ar      1 <0>         0.0000
      6 C6          2.1248   -1.0310    3.2895 C.ar      1 <0>         0.0000
      7 C7          4.6912   -1.7603    0.5468 C.3       1 <0>         0.0000
      8 C8         -3.9453   -0.3056    2.9373 C.3       1 <0>         0.0000
      9 C9         -2.5621   -0.3844    3.5928 C.3       1 <0>         0.0000
     10 C10        -1.4705   -0.6772    2.5740 C.3       1 <0>         0.0000
     11 O1         -0.2227   -0.7338    3.2710 O.3       1 <0>         0.0000
     12 S1          2.1708   -0.7745    5.0516 S.3       1 <0>         0.0000
     13 H1          2.1693   -1.6116   -0.5507 H         1 <0>         0.0000
     14 H2          0.0396   -1.1686    0.5914 H         1 <0>         0.0000
     15 H3          4.2482   -1.3179    3.1966 H         1 <0>         0.0000
     16 H4          5.3577   -0.8931    0.6194 H         1 <0>         0.0000
     17 H5          5.2139   -2.6111    0.9980 H         1 <0>         0.0000
     18 H6          4.5475   -1.9812   -0.5145 H         1 <0>         0.0000
     19 H7         -3.9863    0.4898    2.1846 H         1 <0>         0.0000
     20 H8         -4.2074   -1.2476    2.4424 H         1 <0>         0.0000
     21 H9         -4.7183   -0.0966    3.6829 H         1 <0>         0.0000
     22 H10        -2.5488   -1.1688    4.3578 H         1 <0>         0.0000
     23 H11        -2.3275    0.5589    4.0985 H         1 <0>         0.0000
     24 H12        -1.6569   -1.6356    2.0703 H         1 <0>         0.0000
     25 H13        -1.4319    0.1106    1.8093 H         1 <0>         0.0000
     26 H14         0.8473   -0.5859    5.2075 H         1 <0>         0.0000
@<TRIPOS>BOND
     1    1    2 ar
     2    1    4 ar
     3    1   13 1
     4    2    5 ar
     5    2   14 1
     6    3    4 ar
     7    3    6 ar
     8    3   15 1
     9    4    7 1
    10    5    6 ar
    11    5   11 1
    12    6   12 1
    13    7   16 1
    14    7   17 1
    15    7   18 1
    16    8    9 1
    17    8   19 1
    18    8   20 1
    19    8   21 1
    20    9   10 1
    21    9   22 1
    22    9   23 1
    23   10   11 1
    24   10   24 1
    25   10   25 1
    26   12   26 1
