@<TRIPOS>MOLECULE
*****
   25    26     0     0     0
SMALL
NO_CHARGES

@<TRIPOS>ATOM
      1 C1          2.5814   -0.4523    0.1442 C.ar      1 <0>         0.0000
      2 C2          1.4106   -0.0640    0.7832 C.ar      1 <0>         0.0000
      3 C3          3.2403   -1.6225    0.5319 C.ar      1 <0>         0.0000
      4 C4         -4.3620    0.4080    5.2695 C.2       1 <0>         0.0000
      5 C5          0.8603   -0.8307    1.8282 C.ar      1 <0>         0.0000
      6 C6          2.7137   -2.3981    1.5650 C.ar      1 <0>         0.0000
      7 C7          1.5300   -2.0123    2.2159 C.ar      1 <0>         0.0000
      8 C8         -2.7951    0.5633    3.7505 C.2       1 <0>         0.0000
      9 C9         -0.3802   -0.4093    2.4975 C.2       1 <0>         0.0000
     10 N1         -3.5719   -0.6189    5.4151 N.2       1 <0>         0.0000
     11 N2         -2.5655   -0.5328    4.4492 N.2       1 <0>         0.0000
     12 N3         -0.9579    0.6775    2.0984 N.2       1 <0>         0.0000
     13 N4         -3.9231    1.2038    4.2235 N.pl3     1 <0>         0.0000
     14 N5         -4.4199    2.4004    3.6887 N.3       1 <0>         0.0000
     15 N6         -2.1077    1.0980    2.6894 N.pl3     1 <0>         0.0000
     16 Cl1         3.5669   -3.8557    2.0214 Cl        1 <0>         0.0000
     17 Cl2         0.8920   -3.0041    3.5076 Cl        1 <0>         0.0000
     18 H1          2.9918    0.1515   -0.6602 H         1 <0>         0.0000
     19 H2          0.8904    0.8418    0.4916 H         1 <0>         0.0000
     20 H3          4.1558   -1.9395    0.0431 H         1 <0>         0.0000
     21 H4         -5.2398    0.6354    5.8604 H         1 <0>         0.0000
     22 H5         -0.7764   -1.0177    3.3055 H         1 <0>         0.0000
     23 H6         -4.4327    3.1186    4.4115 H         1 <0>         0.0000
     24 H7         -5.3673    2.2533    3.3432 H         1 <0>         0.0000
     25 H8         -2.4667    1.9713    2.3245 H         1 <0>         0.0000
@<TRIPOS>BOND
     1    1    2 ar
     2    1    3 ar
     3    1   18 1
     4    2    5 ar
     5    2   19 1
     6    3    6 ar
     7    3   20 1
     8    4   10 2
     9    4   13 1
    10    4   21 1
    11    5    7 ar
    12    5    9 1
    13    6    7 ar
    14    6   16 1
    15    7   17 1
    16    8   11 2
    17    8   13 1
    18    8   15 1
    19    9   12 2
    20    9   22 1
    21   10   11 1
    22   12   15 1
    23   13   14 1
    24   14   23 1
    25   14   24 1
    26   15   25 1
