@<TRIPOS>MOLECULE
*****
   20    20     0     0     0
SMALL
NO_CHARGES

@<TRIPOS>ATOM
      1 C1          1.7253   -0.7061   -0.0125 C.ar      1 <0>         0.0000
      2 C2          0.7229   -0.2009    0.8176 C.ar      1 <0>         0.0000
      3 C3          2.7454   -1.7870    1.9119 C.ar      1 <0>         0.0000
      4 C4          1.7460   -1.2928    2.7585 C.ar      1 <0>         0.0000
      5 C5          2.7215   -1.4976    0.5509 C.ar      1 <0>         0.0000
      6 C6          0.7441   -0.4993    2.1799 C.ar      1 <0>         0.0000
      7 C7          1.7771   -1.6010    4.2431 C.3       1 <0>         0.0000
      8 C8          3.6062   -3.1665   -0.8586 C.3       1 <0>         0.0000
      9 O1          2.1465   -0.4766    5.0422 O.3       1 <0>         0.0000
     10 O2          3.7753   -1.9583   -0.2638 O.3       1 <0>         0.0000
     11 F1          3.4386   -4.1686    0.0361 F         1 <0>         0.0000
     12 F2          4.7007   -3.4232   -1.5818 F         1 <0>         0.0000
     13 F3          2.5319   -3.1955   -1.6825 F         1 <0>         0.0000
     14 Cl1        -0.5395    0.1630    3.1933 Cl        1 <0>         0.0000
     15 H1          1.7358   -0.4886   -1.0753 H         1 <0>         0.0000
     16 H2         -0.0676    0.4204    0.4097 H         1 <0>         0.0000
     17 H3          3.5493   -2.3965    2.3135 H         1 <0>         0.0000
     18 H4          0.8066   -2.0048    4.5586 H         1 <0>         0.0000
     19 H5          2.5356   -2.3617    4.4368 H         1 <0>         0.0000
     20 H6          1.4112    0.1572    5.0260 H         1 <0>         0.0000
@<TRIPOS>BOND
     1    1    2 ar
     2    1    5 ar
     3    1   15 1
     4    2    6 ar
     5    2   16 1
     6    3    4 ar
     7    3    5 ar
     8    3   17 1
     9    4    6 ar
    10    4    7 1
    11    5   10 1
    12    6   14 1
    13    7    9 1
    14    7   18 1
    15    7   19 1
    16    8   10 1
    17    8   11 1
    18    8   12 1
    19    8   13 1
    20    9   20 1
