@<TRIPOS>MOLECULE
*****
   25    26     0     0     0
SMALL
NO_CHARGES

@<TRIPOS>ATOM
      1 C1          2.1530   -0.2797    0.3496 C.ar      1 <0>         0.0000
      2 C2          1.0330    0.2381    0.9885 C.ar      1 <0>         0.0000
      3 C3          2.5369   -1.6052    0.5679 C.ar      1 <0>         0.0000
      4 C4         -3.2042    4.9064    1.8302 C.2       1 <0>         0.0000
      5 C5          0.2596   -0.5547    1.8573 C.ar      1 <0>         0.0000
      6 C6          1.7904   -2.4085    1.4313 C.ar      1 <0>         0.0000
      7 C7          0.6550   -1.8922    2.0766 C.ar      1 <0>         0.0000
      8 C8         -2.8065    2.9588    2.7004 C.2       1 <0>         0.0000
      9 C9         -0.9197    0.0101    2.5253 C.2       1 <0>         0.0000
     10 N1         -3.4544    4.9944    3.1124 N.2       1 <0>         0.0000
     11 N2         -3.1868    3.7472    3.6779 N.2       1 <0>         0.0000
     12 N3         -1.3957    1.1511    2.1659 N.2       1 <0>         0.0000
     13 N4         -2.7991    3.6313    1.5034 N.pl3     1 <0>         0.0000
     14 N5         -2.5324    3.1649    0.2023 N.3       1 <0>         0.0000
     15 N6         -2.5150    1.6033    2.8200 N.pl3     1 <0>         0.0000
     16 Cl1         2.3033   -4.0589    1.6801 Cl        1 <0>         0.0000
     17 Cl2        -0.2748   -2.9248    3.1418 Cl        1 <0>         0.0000
     18 H1          2.7413    0.3462   -0.3150 H         1 <0>         0.0000
     19 H2          0.7413    1.2723    0.8419 H         1 <0>         0.0000
     20 H3          3.4121   -2.0219    0.0804 H         1 <0>         0.0000
     21 H4         -3.2823    5.6955    1.0950 H         1 <0>         0.0000
     22 H5         -1.3785   -0.5664    3.3322 H         1 <0>         0.0000
     23 H6         -3.2740    2.5105   -0.0520 H         1 <0>         0.0000
     24 H7         -1.6666    2.6284    0.2507 H         1 <0>         0.0000
     25 H8         -2.6925    1.2477    3.7606 H         1 <0>         0.0000
@<TRIPOS>BOND
     1    1    2 ar
     2    1    3 ar
     3    1   18 1
     4    2    5 ar
     5    2   19 1
     6    3    6 ar
     7    3   20 1
     8    4   10 2
     9    4   13 1
    10    4   21 1
    11    5    7 ar
    12    5    9 1
    13    6    7 ar
    14    6   16 1
    15    7   17 1
    16    8   11 2
    17    8   13 1
    18    8   15 1
    19    9   12 2
    20    9   22 1
    21   10   11 1
    22   12   15 1
    23   13   14 1
    24   14   23 1
    25   14   24 1
    26   15   25 1
