@<TRIPOS>MOLECULE
*****
   35    36     0     0     0
SMALL
NO_CHARGES

@<TRIPOS>ATOM
      1 C1         -3.3444   -3.4159    3.8295 C.2       1 <0>         0.0000
      2 C2         -2.2459   -4.2978    3.7817 C.2       1 <0>         0.0000
      3 C3         -1.2358   -1.7622    0.5622 C.2       1 <0>         0.0000
      4 C4         -0.8908    0.1577   -2.4943 C.3       1 <0>         0.0000
      5 C5         -0.6189   -1.1503   -1.7263 C.3       1 <0>         0.0000
      6 C6          0.4866    0.0138    0.1825 C.3       1 <0>         0.0000
      7 C7          0.7989    1.1177   -0.8629 C.3       1 <0>         0.0000
      8 C8         -0.4694    1.4137   -1.7000 C.3       1 <0>         0.0000
      9 C9          2.0457    0.7947   -1.7024 C.3       1 <0>         0.0000
     10 C10        -0.2953    2.6160   -2.6245 C.3       1 <0>         0.0000
     11 C11        -1.0017   -1.5287    2.0683 C.3       1 <0>         0.0000
     12 N1         -2.9978   -2.2700    3.2333 N.2       1 <0>         0.0000
     13 N2         -1.2343   -3.6856    3.1568 N.2       1 <0>         0.0000
     14 N3         -1.7331   -2.4826    2.8631 N.pl3     1 <0>         0.0000
     15 N4         -0.5683   -0.9040   -0.2795 N.am      1 <0>         0.0000
     16 O1         -1.9892   -2.6447    0.1706 O.2       1 <0>         0.0000
     17 O2         -1.5270    1.8023   -0.7930 O.3       1 <0>         0.0000
     18 H1         -4.3298   -3.5463    4.2557 H         1 <0>         0.0000
     19 H2         -2.1389   -5.3052    4.1605 H         1 <0>         0.0000
     20 H3         -0.3628    0.1239   -3.4523 H         1 <0>         0.0000
     21 H4         -1.9566    0.2582   -2.7217 H         1 <0>         0.0000
     22 H5         -1.3946   -1.8934   -1.9024 H         1 <0>         0.0000
     23 H6          0.3349   -1.5951   -2.0365 H         1 <0>         0.0000
     24 H7          1.4033   -0.5468    0.4127 H         1 <0>         0.0000
     25 H8          0.1546    0.4926    1.1042 H         1 <0>         0.0000
     26 H9          1.0130    2.0289   -0.2945 H         1 <0>         0.0000
     27 H10         1.9059   -0.0755   -2.3505 H         1 <0>         0.0000
     28 H11         2.8978    0.5819   -1.0482 H         1 <0>         0.0000
     29 H12         2.3266    1.6404   -2.3354 H         1 <0>         0.0000
     30 H13        -0.0495    3.5091   -2.0416 H         1 <0>         0.0000
     31 H14        -1.2333    2.8055   -3.1543 H         1 <0>         0.0000
     32 H15         0.4914    2.4493   -3.3642 H         1 <0>         0.0000
     33 H16        -1.3350   -0.5306    2.3597 H         1 <0>         0.0000
     34 H17         0.0570   -1.6294    2.3150 H         1 <0>         0.0000
     35 H18        -1.8648    0.9938   -0.3736 H         1 <0>         0.0000
@<TRIPOS>BOND
     1    1    2 1
     2    1   12 2
     3    1   18 1
     4    2   13 2
     5    2   19 1
     6    3   11 1
     7    3   15 am
     8    3   16 2
     9    4    5 1
    10    4    8 1
    11    4   20 1
    12    4   21 1
    13    5   15 1
    14    5   22 1
    15    5   23 1
    16    6    7 1
    17    6   15 1
    18    6   24 1
    19    6   25 1
    20    7    8 1
    21    7    9 1
    22    7   26 1
    23    8   10 1
    24    8   17 1
    25    9   27 1
    26    9   28 1
    27    9   29 1
    28   10   30 1
    29   10   31 1
    30   10   32 1
    31   11   14 1
    32   11   33 1
    33   11   34 1
    34   12   14 1
    35   13   14 1
    36   17   35 1
