@<TRIPOS>MOLECULE
*****
   32    34     0     0     0
SMALL
NO_CHARGES

@<TRIPOS>ATOM
      1 C1         -5.3730    1.0111    0.0862 C.ar      1 <0>         0.0000
      2 C2         -4.7127   -0.1059   -0.4713 C.ar      1 <0>         0.0000
      3 C3         -5.1715    1.3861    1.4128 C.ar      1 <0>         0.0000
      4 C4         -3.8322   -0.8781    0.2853 C.ar      1 <0>         0.0000
      5 C5         -2.9544   -0.3426    3.7682 C.2       1 <0>         0.0000
      6 C6         -4.2872    0.6218    2.1958 C.ar      1 <0>         0.0000
      7 C7         -3.8402    0.7048    3.5729 C.2       1 <0>         0.0000
      8 C8         -3.6325   -0.4981    1.6170 C.ar      1 <0>         0.0000
      9 C9         -7.8973    6.5542    4.8779 C.ar      1 <0>         0.0000
     10 C10        -7.2366    6.2914    6.1068 C.ar      1 <0>         0.0000
     11 C11        -6.2248    4.5267    5.1422 C.ar      1 <0>         0.0000
     12 C12        -4.2186    1.6719    4.5759 C.2       1 <0>         0.0000
     13 C13        -8.8515    7.7008    4.7059 C.3       1 <0>         0.0000
     14 N1         -7.6556    5.7498    3.8477 N.ar      1 <0>         0.0000
     15 N2         -6.4019    5.2863    6.2530 N.ar      1 <0>         0.0000
     16 N3         -6.8137    4.7156    3.9524 N.ar      1 <0>         0.0000
     17 N4         -5.0533    2.6178    4.3061 N.2       1 <0>         0.0000
     18 N5         -2.8281   -1.0638    2.6006 N.pl3     1 <0>         0.0000
     19 N6         -5.3514    3.4824    5.3110 N.pl3     1 <0>         0.0000
     20 O1         -7.4737    7.1018    7.1616 O.3       1 <0>         0.0000
     21 H1         -6.0522    1.5886   -0.5352 H         1 <0>         0.0000
     22 H2         -4.8934   -0.3701   -1.5100 H         1 <0>         0.0000
     23 H3         -5.6770    2.2435    1.8444 H         1 <0>         0.0000
     24 H4         -3.3246   -1.7378   -0.1455 H         1 <0>         0.0000
     25 H5         -2.4050   -0.6247    4.6574 H         1 <0>         0.0000
     26 H6         -3.7668    1.5674    5.5740 H         1 <0>         0.0000
     27 H7         -8.3592    8.6586    4.9059 H         1 <0>         0.0000
     28 H8         -9.2297    7.6990    3.6820 H         1 <0>         0.0000
     29 H9         -9.6945    7.6215    5.4009 H         1 <0>         0.0000
     30 H10        -2.2413   -1.8768    2.4802 H         1 <0>         0.0000
     31 H11        -4.9339    3.3878    6.2366 H         1 <0>         0.0000
     32 H12        -6.9356    6.7633    7.9024 H         1 <0>         0.0000
@<TRIPOS>BOND
     1    1    2 ar
     2    1    3 ar
     3    1   21 1
     4    2    4 ar
     5    2   22 1
     6    3    6 ar
     7    3   23 1
     8    4    8 ar
     9    4   24 1
    10    5    7 2
    11    5   18 1
    12    5   25 1
    13    6    7 1
    14    6    8 ar
    15    7   12 1
    16    8   18 1
    17    9   10 ar
    18    9   13 1
    19    9   14 ar
    20   10   15 ar
    21   10   20 1
    22   11   15 ar
    23   11   16 ar
    24   11   19 1
    25   12   17 2
    26   12   26 1
    27   13   27 1
    28   13   28 1
    29   13   29 1
    30   14   16 ar
    31   17   19 1
    32   18   30 1
    33   19   31 1
    34   20   32 1
