@<TRIPOS>MOLECULE
*****
   25    26     0     0     0
SMALL
NO_CHARGES

@<TRIPOS>ATOM
      1 C1          1.7919   -2.6478    1.6755 C.ar      1 <0>         0.0000
      2 C2          0.6540   -1.9608    2.0835 C.ar      1 <0>         0.0000
      3 C3          2.8290   -1.9568    1.0510 C.ar      1 <0>         0.0000
      4 C4         -4.0977    4.5590    3.0672 C.2       1 <0>         0.0000
      5 C5          0.5083   -0.5722    1.8863 C.ar      1 <0>         0.0000
      6 C6          2.7112   -0.5804    0.8430 C.ar      1 <0>         0.0000
      7 C7          1.5664    0.1273    1.2503 C.ar      1 <0>         0.0000
      8 C8         -2.7311    2.8837    2.7528 C.2       1 <0>         0.0000
      9 C9         -0.7489    0.0030    2.3724 C.2       1 <0>         0.0000
     10 N1         -3.0307    5.0201    2.4756 N.2       1 <0>         0.0000
     11 N2         -2.1465    3.9568    2.2682 N.2       1 <0>         0.0000
     12 N3         -1.0829    1.2440    2.2929 N.2       1 <0>         0.0000
     13 N4         -3.9689    3.1934    3.2738 N.pl3     1 <0>         0.0000
     14 N5         -4.8290    2.2531    3.8608 N.3       1 <0>         0.0000
     15 N6         -2.2860    1.5839    2.7995 N.pl3     1 <0>         0.0000
     16 Cl1         4.0424    0.2349    0.0551 Cl        1 <0>         0.0000
     17 Cl2         1.4792    1.8361    0.9638 Cl        1 <0>         0.0000
     18 H1          1.8760   -3.7179    1.8408 H         1 <0>         0.0000
     19 H2         -0.1532   -2.5023    2.5703 H         1 <0>         0.0000
     20 H3          3.7277   -2.4686    0.7229 H         1 <0>         0.0000
     21 H4         -4.9700    5.1256    3.3662 H         1 <0>         0.0000
     22 H5         -1.4286   -0.7275    2.8348 H         1 <0>         0.0000
     23 H6         -5.7097    2.2319    3.3481 H         1 <0>         0.0000
     24 H7         -5.0132    2.5183    4.8276 H         1 <0>         0.0000
     25 H8         -2.9118    0.8961    3.2218 H         1 <0>         0.0000
@<TRIPOS>BOND
     1    1    2 ar
     2    1    3 ar
     3    1   18 1
     4    2    5 ar
     5    2   19 1
     6    3    6 ar
     7    3   20 1
     8    4   10 2
     9    4   13 1
    10    4   21 1
    11    5    7 ar
    12    5    9 1
    13    6    7 ar
    14    6   16 1
    15    7   17 1
    16    8   11 2
    17    8   13 1
    18    8   15 1
    19    9   12 2
    20    9   22 1
    21   10   11 1
    22   12   15 1
    23   13   14 1
    24   14   23 1
    25   14   24 1
    26   15   25 1
