@<TRIPOS>MOLECULE
*****
   38    40     0     0     0
SMALL
NO_CHARGES

@<TRIPOS>ATOM
      1 C1          1.9000   -2.0177    0.2321 C.ar      1 <0>         0.0000
      2 C2          3.2808   -0.5359    1.5318 C.ar      1 <0>         0.0000
      3 C3          0.7554   -1.4999    0.8408 C.ar      1 <0>         0.0000
      4 C4          2.1475    0.0008    2.1411 C.ar      1 <0>         0.0000
      5 C5         -2.2213    0.9920    2.9485 C.2       1 <0>         0.0000
      6 C6          3.1786   -1.5456    0.5618 C.ar      1 <0>         0.0000
      7 C7          0.8836   -0.4792    1.7858 C.ar      1 <0>         0.0000
      8 C8         -1.4135    0.7844    4.1099 C.2       1 <0>         0.0000
      9 C9         -1.4294    0.5200    1.8967 C.2       1 <0>         0.0000
     10 C10        -6.4791    2.3031    2.9114 C.2       1 <0>         0.0000
     11 C11        -6.0435    2.9037    0.8441 C.2       1 <0>         0.0000
     12 C12        -3.5405    1.5794    2.9370 C.2       1 <0>         0.0000
     13 C13         4.4099   -2.0917   -0.1217 C.3       1 <0>         0.0000
     14 C14        -1.7495    1.1007    5.5353 C.3       1 <0>         0.0000
     15 C15        -6.4179    1.6709    4.2618 C.3       1 <0>         0.0000
     16 N1         -0.2461    0.2347    3.7960 N.2       1 <0>         0.0000
     17 N2         -7.5382    2.9016    2.4196 N.2       1 <0>         0.0000
     18 N3         -7.2646    3.2999    1.1134 N.2       1 <0>         0.0000
     19 N4         -4.2176    1.7267    1.8492 N.2       1 <0>         0.0000
     20 N5         -0.2641    0.0664    2.4334 N.pl3     1 <0>         0.0000
     21 N6         -5.4769    2.2868    1.9382 N.pl3     1 <0>         0.0000
     22 S1         -5.1504    3.0974   -0.6584 S.3       1 <0>         0.0000
     23 Cl1        -1.7396    0.5474    0.2116 Cl        1 <0>         0.0000
     24 H1          1.7938   -2.8136   -0.5011 H         1 <0>         0.0000
     25 H2          4.2618   -0.1608    1.8139 H         1 <0>         0.0000
     26 H3         -0.2229   -1.8978    0.5932 H         1 <0>         0.0000
     27 H4          2.2299    0.7769    2.8947 H         1 <0>         0.0000
     28 H5         -3.9203    1.9017    3.9074 H         1 <0>         0.0000
     29 H6          4.6698   -1.4852   -0.9976 H         1 <0>         0.0000
     30 H7          5.2744   -2.0864    0.5485 H         1 <0>         0.0000
     31 H8          4.2537   -3.1176   -0.4674 H         1 <0>         0.0000
     32 H9         -2.6439    0.5605    5.8639 H         1 <0>         0.0000
     33 H10        -0.9168    0.8106    6.1790 H         1 <0>         0.0000
     34 H11        -1.9367    2.1711    5.6735 H         1 <0>         0.0000
     35 H12        -6.0055    0.6575    4.2151 H         1 <0>         0.0000
     36 H13        -5.8208    2.2524    4.9729 H         1 <0>         0.0000
     37 H14        -7.4384    1.6160    4.6451 H         1 <0>         0.0000
     38 H15        -6.1794    3.7422   -1.2461 H         1 <0>         0.0000
@<TRIPOS>BOND
     1    1    3 ar
     2    1    6 ar
     3    1   24 1
     4    2    4 ar
     5    2    6 ar
     6    2   25 1
     7    3    7 ar
     8    3   26 1
     9    4    7 ar
    10    4   27 1
    11    5    8 1
    12    5    9 2
    13    5   12 1
    14    6   13 1
    15    7   20 1
    16    8   14 1
    17    8   16 2
    18    9   20 1
    19    9   23 1
    20   10   15 1
    21   10   17 2
    22   10   21 1
    23   11   18 2
    24   11   21 1
    25   11   22 1
    26   12   19 2
    27   12   28 1
    28   13   29 1
    29   13   30 1
    30   13   31 1
    31   14   32 1
    32   14   33 1
    33   14   34 1
    34   15   35 1
    35   15   36 1
    36   15   37 1
    37   16   20 1
    38   17   18 1
    39   19   21 1
    40   22   38 1
