@<TRIPOS>MOLECULE
*****
   32    34     0     0     0
SMALL
NO_CHARGES

@<TRIPOS>ATOM
      1 C1         -5.3482    0.9667    0.0572 C.ar      1 <0>         0.0000
      2 C2         -4.6813   -0.1535   -0.4860 C.ar      1 <0>         0.0000
      3 C3         -5.1551    1.3534    1.3817 C.ar      1 <0>         0.0000
      4 C4         -3.8035   -0.9154    0.2837 C.ar      1 <0>         0.0000
      5 C5         -2.9489   -0.3456    3.7663 C.2       1 <0>         0.0000
      6 C6         -4.2741    0.6003    2.1785 C.ar      1 <0>         0.0000
      7 C7         -3.8363    0.6979    3.5572 C.2       1 <0>         0.0000
      8 C8         -3.6128   -0.5232    1.6132 C.ar      1 <0>         0.0000
      9 C9         -7.8625    6.5909    5.0119 C.ar      1 <0>         0.0000
     10 C10        -7.6298    5.7515    3.8924 C.ar      1 <0>         0.0000
     11 C11        -6.2203    4.5260    5.1271 C.ar      1 <0>         0.0000
     12 C12        -4.2193    1.6699    4.5540 C.2       1 <0>         0.0000
     13 C13        -8.7935    7.7675    4.9591 C.3       1 <0>         0.0000
     14 N1         -7.2255    6.3160    6.1488 N.ar      1 <0>         0.0000
     15 N2         -6.8143    4.7176    3.9323 N.ar      1 <0>         0.0000
     16 N3         -6.3924    5.2796    6.2305 N.ar      1 <0>         0.0000
     17 N4         -5.0546    2.6165    4.2829 N.2       1 <0>         0.0000
     18 N5         -2.8133   -1.0772    2.6061 N.pl3     1 <0>         0.0000
     19 N6         -5.3502    3.4799    5.2888 N.pl3     1 <0>         0.0000
     20 O1         -8.2695    6.0197    2.7343 O.3       1 <0>         0.0000
     21 H1         -6.0249    1.5353   -0.5753 H         1 <0>         0.0000
     22 H2         -4.8547   -0.4279   -1.5232 H         1 <0>         0.0000
     23 H3         -5.6637    2.2125    1.8056 H         1 <0>         0.0000
     24 H4         -3.2909   -1.7776   -0.1360 H         1 <0>         0.0000
     25 H5         -2.4043   -0.6179    4.6614 H         1 <0>         0.0000
     26 H6         -3.7693    1.5689    5.5523 H         1 <0>         0.0000
     27 H7         -9.8106    7.4555    4.6985 H         1 <0>         0.0000
     28 H8         -8.8076    8.2566    5.9349 H         1 <0>         0.0000
     29 H9         -8.4750    8.4898    4.1996 H         1 <0>         0.0000
     30 H10        -2.2234   -1.8896    2.4971 H         1 <0>         0.0000
     31 H11        -4.9345    3.3910    6.2159 H         1 <0>         0.0000
     32 H12        -7.9806    5.3392    2.0959 H         1 <0>         0.0000
@<TRIPOS>BOND
     1    1    2 ar
     2    1    3 ar
     3    1   21 1
     4    2    4 ar
     5    2   22 1
     6    3    6 ar
     7    3   23 1
     8    4    8 ar
     9    4   24 1
    10    5    7 2
    11    5   18 1
    12    5   25 1
    13    6    7 1
    14    6    8 ar
    15    7   12 1
    16    8   18 1
    17    9   10 ar
    18    9   13 1
    19    9   14 ar
    20   10   15 ar
    21   10   20 1
    22   11   15 ar
    23   11   16 ar
    24   11   19 1
    25   12   17 2
    26   12   26 1
    27   13   27 1
    28   13   28 1
    29   13   29 1
    30   14   16 ar
    31   17   19 1
    32   18   30 1
    33   19   31 1
    34   20   32 1
