@<TRIPOS>MOLECULE
*****
   15    14     0     0     0
SMALL
NO_CHARGES

@<TRIPOS>ATOM
      1 C1          0.6967    1.0080   -0.2529 C.2       1 <0>         0.0000
      2 C2         -0.1775    0.0017   -0.1632 C.2       1 <0>         0.0000
      3 C3         -0.0852   -1.1246    0.8149 C.2       1 <0>         0.0000
      4 O1         -0.8666   -2.0489    0.8757 O.2       1 <0>         0.0000
      5 O2         -0.5492    0.9016   -3.2832 O.2       1 <0>         0.0000
      6 O3          0.9873   -0.9976    1.6431 O.3       1 <0>         0.0000
      7 O4         -2.7043   -0.5304   -2.9559 O.3       1 <0>         0.0000
      8 O5         -0.4435   -1.6465   -2.7029 O.3       1 <0>         0.0000
      9 O6         -1.3134   -0.0942   -0.9612 O.3       1 <0>         0.0000
     10 P1         -1.1795   -0.2251   -2.5620 P.3       1 <0>         0.0000
     11 H1          0.5756    1.7888   -0.9967 H         1 <0>         0.0000
     12 H2          1.5489    1.0367    0.4150 H         1 <0>         0.0000
     13 H3          0.9596   -1.7727    2.2354 H         1 <0>         0.0000
     14 H4         -3.1190    0.2410   -3.3786 H         1 <0>         0.0000
     15 H5          0.0887   -1.6942   -3.5153 H         1 <0>         0.0000
@<TRIPOS>BOND
     1    1    2 2
     2    1   11 1
     3    1   12 1
     4    2    3 1
     5    2    9 1
     6    3    4 2
     7    3    6 1
     8    5   10 2
     9    6   13 1
    10    7   10 1
    11    7   14 1
    12    8   10 1
    13    8   15 1
    14    9   10 1
