@<TRIPOS>MOLECULE
*****
   22    22     0     0     0
SMALL
NO_CHARGES

@<TRIPOS>ATOM
      1 C1          1.8851   -1.0363   -0.1124 C.ar      1 <0>         0.0000
      2 C2          0.8066   -0.4630    0.5610 C.ar      1 <0>         0.0000
      3 C3          1.7997   -1.0786    2.6757 C.ar      1 <0>         0.0000
      4 C4          2.8783   -1.6520    2.0022 C.ar      1 <0>         0.0000
      5 C5          2.9210   -1.6309    0.6081 C.ar      1 <0>         0.0000
      6 C6          0.7638   -0.4841    1.9551 C.ar      1 <0>         0.0000
      7 C7          3.4872   -3.4708    3.6506 C.3       1 <0>         0.0000
      8 C8          3.9715   -2.2819    2.8040 C.3       1 <0>         0.0000
      9 N1          4.6584   -1.3241    3.6880 N.3       1 <0>         0.0000
     10 N2          4.0106   -2.2095   -0.0994 N.pl3     1 <0>         0.0000
     11 O1          5.0047   -1.4953   -0.3705 O.3       1 <0>         0.0000
     12 O2          3.9445   -3.4166   -0.4317 O.2       1 <0>         0.0000
     13 F1         -0.2726    0.0659    2.6011 F         1 <0>         0.0000
     14 F2          3.0127   -4.4342    2.8132 F         1 <0>         0.0000
     15 H1          1.9042   -1.0123   -1.1993 H         1 <0>         0.0000
     16 H2          0.0000    0.0002    0.0004 H         1 <0>         0.0000
     17 H3          1.7564   -1.0899    3.7618 H         1 <0>         0.0000
     18 H4          4.3006   -3.9193    4.2308 H         1 <0>         0.0000
     19 H5          2.6827   -3.2003    4.3419 H         1 <0>         0.0000
     20 H6          4.7431   -2.6855    2.1245 H         1 <0>         0.0000
     21 H7          4.7955   -0.4045    3.3453 H         1 <0>         0.0000
     22 H8          5.1243   -1.6900    4.4824 H         1 <0>         0.0000
@<TRIPOS>BOND
     1    1    2 ar
     2    1    5 ar
     3    1   15 1
     4    2    6 ar
     5    2   16 1
     6    3    4 ar
     7    3    6 ar
     8    3   17 1
     9    4    5 ar
    10    4    8 1
    11    5   10 1
    12    6   13 1
    13    7    8 1
    14    7   14 1
    15    7   18 1
    16    7   19 1
    17    8    9 1
    18    8   20 1
    19    9   21 1
    20    9   22 1
    21   10   11 1
    22   10   12 2
