@<TRIPOS>MOLECULE
*****
   34    36     0     0     0
SMALL
NO_CHARGES

@<TRIPOS>ATOM
      1 C1          1.1993   -4.1727  -13.1484 C.1       1 <0>         0.0000
      2 C2         -1.8237    2.8555   -4.6511 C.ar      1 <0>         0.0000
      3 C3         -1.7051    2.1382   -3.4477 C.ar      1 <0>         0.0000
      4 C4         -1.6175    2.2324   -5.8823 C.ar      1 <0>         0.0000
      5 C5         -1.3758    0.7795   -3.4563 C.ar      1 <0>         0.0000
      6 C6          1.1125   -4.3196  -10.6158 C.2       1 <0>         0.0000
      7 C7          0.5929   -4.0502  -11.8738 C.2       1 <0>         0.0000
      8 C8          0.1031   -4.0033   -9.6651 C.2       1 <0>         0.0000
      9 C9         -1.2878    0.8697   -5.9099 C.ar      1 <0>         0.0000
     10 C10        -1.1704    0.1583   -4.6893 C.ar      1 <0>         0.0000
     11 C11        -1.0237   -3.5677  -10.3818 C.2       1 <0>         0.0000
     12 C12        -0.7691   -1.1078   -6.7372 C.2       1 <0>         0.0000
     13 C13         0.2188   -4.1619   -8.2081 C.2       1 <0>         0.0000
     14 C14        -2.3937   -3.2144   -9.8942 C.3       1 <0>         0.0000
     15 C15        -1.6287   -3.2650  -12.8022 C.3       1 <0>         0.0000
     16 N1          1.6834   -4.2701  -14.2068 N.1       1 <0>         0.0000
     17 N2         -1.0561    0.1186   -7.0580 N.2       1 <0>         0.0000
     18 N3         -0.0825   -3.2996   -7.2947 N.2       1 <0>         0.0000
     19 N4         -0.7111   -3.5882  -11.7161 N.pl3     1 <0>         0.0000
     20 N5         -0.5280   -2.0749   -7.6826 N.pl3     1 <0>         0.0000
     21 S1         -0.7417   -1.5215   -5.0153 S.3       1 <0>         0.0000
     22 H1         -2.0793    3.9113   -4.6211 H         1 <0>         0.0000
     23 H2         -1.8697    2.6423   -2.4994 H         1 <0>         0.0000
     24 H3         -1.7054    2.7790   -6.8167 H         1 <0>         0.0000
     25 H4         -1.2830    0.2269   -2.5254 H         1 <0>         0.0000
     26 H5          2.1134   -4.6761  -10.4121 H         1 <0>         0.0000
     27 H6          0.6229   -5.0959   -7.8228 H         1 <0>         0.0000
     28 H7         -2.6021   -2.1409   -9.9806 H         1 <0>         0.0000
     29 H8         -3.1651   -3.7483  -10.4592 H         1 <0>         0.0000
     30 H9         -2.4958   -3.4854   -8.8429 H         1 <0>         0.0000
     31 H10        -2.3783   -4.0530  -12.9256 H         1 <0>         0.0000
     32 H11        -2.1330   -2.3183  -12.5971 H         1 <0>         0.0000
     33 H12        -1.0642   -3.1689  -13.7296 H         1 <0>         0.0000
     34 H13        -0.3955   -1.7494   -8.6399 H         1 <0>         0.0000
@<TRIPOS>BOND
     1    1    7 1
     2    1   16 3
     3    2    3 ar
     4    2    4 ar
     5    2   22 1
     6    3    5 ar
     7    3   23 1
     8    4    9 ar
     9    4   24 1
    10    5   10 ar
    11    5   25 1
    12    6    7 2
    13    6    8 1
    14    6   26 1
    15    7   19 1
    16    8   11 2
    17    8   13 1
    18    9   10 ar
    19    9   17 1
    20   10   21 1
    21   11   14 1
    22   11   19 1
    23   12   17 2
    24   12   20 1
    25   12   21 1
    26   13   18 2
    27   13   27 1
    28   14   28 1
    29   14   29 1
    30   14   30 1
    31   15   19 1
    32   15   31 1
    33   15   32 1
    34   15   33 1
    35   18   20 1
    36   20   34 1
