@<TRIPOS>MOLECULE
*****
   35    37     0     0     0
SMALL
NO_CHARGES

@<TRIPOS>ATOM
      1 C1          4.3653   -3.9499    4.5159 C.1       1 <0>         0.0000
      2 C2          4.1004   -1.6028    3.8241 C.ar      1 <0>         0.0000
      3 C3          5.6675   -3.0403    2.6349 C.ar      1 <0>         0.0000
      4 C4          4.4195   -0.5535    2.9676 C.ar      1 <0>         0.0000
      5 C5          5.9981   -1.9764    1.7999 C.ar      1 <0>         0.0000
      6 C6          0.6588    0.7943    0.4720 C.ar      1 <0>         0.0000
      7 C7          1.2342    2.0510    0.6416 C.ar      1 <0>         0.0000
      8 C8          2.8423   -0.1916    0.2976 C.ar      1 <0>         0.0000
      9 C9          4.7127   -2.8568    3.6505 C.ar      1 <0>         0.0000
     10 C10         5.3606   -0.7371    1.9441 C.ar      1 <0>         0.0000
     11 C11         1.4555   -0.3493    0.2911 C.ar      1 <0>         0.0000
     12 C12         3.4405    1.0560    0.5293 C.ar      1 <0>         0.0000
     13 C13         2.6253    2.1943    0.6690 C.ar      1 <0>         0.0000
     14 C14         5.8039    0.3902    1.0538 C.2       1 <0>         0.0000
     15 C15         5.2661    2.5576    0.0424 C.3       1 <0>         0.0000
     16 C16         4.5471    3.6097    0.8752 C.3       1 <0>         0.0000
     17 C17         0.8327   -1.7142    0.1086 C.3       1 <0>         0.0000
     18 N1          4.0796   -4.8376    5.2151 N.1       1 <0>         0.0000
     19 N2          4.8491    1.2449    0.5387 N.am      1 <0>         0.0000
     20 O1          7.0042    0.5581    0.8337 O.2       1 <0>         0.0000
     21 O2          3.1201    3.4684    0.7976 O.3       1 <0>         0.0000
     22 H1          3.3765   -1.4629    4.6209 H         1 <0>         0.0000
     23 H2          6.1461   -4.0072    2.5148 H         1 <0>         0.0000
     24 H3          3.9322    0.4073    3.0956 H         1 <0>         0.0000
     25 H4          6.7546   -2.0935    1.0302 H         1 <0>         0.0000
     26 H5         -0.4247    0.7033    0.4613 H         1 <0>         0.0000
     27 H6          0.6230    2.9417    0.7546 H         1 <0>         0.0000
     28 H7          3.4787   -1.0540    0.1276 H         1 <0>         0.0000
     29 H8          5.0044    2.6532   -1.0169 H         1 <0>         0.0000
     30 H9          6.3466    2.6448    0.1503 H         1 <0>         0.0000
     31 H10         4.8592    3.5278    1.9238 H         1 <0>         0.0000
     32 H11         4.7662    4.6187    0.5179 H         1 <0>         0.0000
     33 H12        -0.0984   -1.6547   -0.4631 H         1 <0>         0.0000
     34 H13         1.5085   -2.3952   -0.4167 H         1 <0>         0.0000
     35 H14         0.5947   -2.1709    1.0768 H         1 <0>         0.0000
@<TRIPOS>BOND
     1    1    9 1
     2    1   18 3
     3    2    4 ar
     4    2    9 ar
     5    2   22 1
     6    3    5 ar
     7    3    9 ar
     8    3   23 1
     9    4   10 ar
    10    4   24 1
    11    5   10 ar
    12    5   25 1
    13    6    7 ar
    14    6   11 ar
    15    6   26 1
    16    7   13 ar
    17    7   27 1
    18    8   11 ar
    19    8   12 ar
    20    8   28 1
    21   10   14 1
    22   11   17 1
    23   12   13 ar
    24   12   19 1
    25   13   21 1
    26   14   19 am
    27   14   20 2
    28   15   16 1
    29   15   19 1
    30   15   29 1
    31   15   30 1
    32   16   21 1
    33   16   31 1
    34   16   32 1
    35   17   33 1
    36   17   34 1
    37   17   35 1
