@<TRIPOS>MOLECULE
*****
   44    46     0     0     0
SMALL
NO_CHARGES

@<TRIPOS>ATOM
      1 C1         -1.4754    6.1571   -0.6907 C.2       1 <0>         0.0000
      2 C2         -1.4861    3.7318   -0.5240 C.2       1 <0>         0.0000
      3 C3         -1.8326    4.9598    0.0019 C.2       1 <0>         0.0000
      4 C4         -0.8160    6.0938   -1.8896 C.2       1 <0>         0.0000
      5 C5         -0.7743    3.6293   -1.7807 C.2       1 <0>         0.0000
      6 C6          1.4477   -2.3882   -0.8899 C.2       1 <0>         0.0000
      7 C7         -1.9911    2.4629    0.1184 C.2       1 <0>         0.0000
      8 C8          1.1539    0.6031    0.9585 C.3       1 <0>         0.0000
      9 C9         -0.8906   -0.8289    0.6515 C.3       1 <0>         0.0000
     10 C10         0.3677    1.9093    0.7482 C.3       1 <0>         0.0000
     11 C11        -1.5195    0.3962    1.3390 C.3       1 <0>         0.0000
     12 C12         0.5873   -0.2847   -1.3786 C.3       1 <0>         0.0000
     13 C13         0.5376   -0.5282    0.1433 C.3       1 <0>         0.0000
     14 C14        -2.6191    5.0705    1.2848 C.3       1 <0>         0.0000
     15 C15        -0.4177    7.2856   -2.7117 C.3       1 <0>         0.0000
     16 C16         1.0197   -1.9201   -3.2686 C.3       1 <0>         0.0000
     17 N1         -0.4931    4.8610   -2.3883 N.am      1 <0>         0.0000
     18 N2          0.8304   -1.6339   -1.8601 N.am      1 <0>         0.0000
     19 N3         -1.0757    1.6371    0.7020 N.am      1 <0>         0.0000
     20 O1         -0.4003    2.5821   -2.3312 O.2       1 <0>         0.0000
     21 O2          1.9908   -3.4677   -1.0102 O.2       1 <0>         0.0000
     22 O3         -3.2053    2.2345    0.1264 O.2       1 <0>         0.0000
     23 O4          1.3532   -1.7229    0.3104 O.3       1 <0>         0.0000
     24 H1         -1.7361    7.1251   -0.2774 H         1 <0>         0.0000
     25 H2          2.1953    0.7558    0.6618 H         1 <0>         0.0000
     26 H3          1.1600    0.3128    2.0138 H         1 <0>         0.0000
     27 H4         -0.8305   -1.6526    1.3688 H         1 <0>         0.0000
     28 H5         -1.5155   -1.1630   -0.1813 H         1 <0>         0.0000
     29 H6          0.6022    2.6163    1.5547 H         1 <0>         0.0000
     30 H7          0.6708    2.3592   -0.1962 H         1 <0>         0.0000
     31 H8         -2.6066    0.3685    1.2884 H         1 <0>         0.0000
     32 H9         -1.2350    0.4273    2.3980 H         1 <0>         0.0000
     33 H10        -0.3369    0.1435   -1.7684 H         1 <0>         0.0000
     34 H11         1.4083    0.3913   -1.6606 H         1 <0>         0.0000
     35 H12        -3.6841    4.9254    1.0763 H         1 <0>         0.0000
     36 H13        -2.4853    6.0528    1.7455 H         1 <0>         0.0000
     37 H14        -2.3319    4.3010    2.0054 H         1 <0>         0.0000
     38 H15         0.6664    7.3099   -2.8710 H         1 <0>         0.0000
     39 H16        -0.7107    8.2105   -2.2126 H         1 <0>         0.0000
     40 H17        -0.8997    7.2600   -3.6958 H         1 <0>         0.0000
     41 H18         0.1038   -1.6924   -3.8223 H         1 <0>         0.0000
     42 H19         1.2548   -2.9798   -3.3766 H         1 <0>         0.0000
     43 H20         1.8431   -1.3275   -3.6922 H         1 <0>         0.0000
     44 H21        -0.0039    4.7818   -3.2753 H         1 <0>         0.0000
@<TRIPOS>BOND
     1    1    3 1
     2    1    4 2
     3    1   24 1
     4    2    3 2
     5    2    5 1
     6    2    7 1
     7    3   14 1
     8    4   15 1
     9    4   17 1
    10    5   17 am
    11    5   20 2
    12    6   18 am
    13    6   21 2
    14    6   23 1
    15    7   19 am
    16    7   22 2
    17    8   10 1
    18    8   13 1
    19    8   25 1
    20    8   26 1
    21    9   11 1
    22    9   13 1
    23    9   27 1
    24    9   28 1
    25   10   19 1
    26   10   29 1
    27   10   30 1
    28   11   19 1
    29   11   31 1
    30   11   32 1
    31   12   13 1
    32   12   18 1
    33   12   33 1
    34   12   34 1
    35   13   23 1
    36   14   35 1
    37   14   36 1
    38   14   37 1
    39   15   38 1
    40   15   39 1
    41   15   40 1
    42   16   18 1
    43   16   41 1
    44   16   42 1
    45   16   43 1
    46   17   44 1
