@<TRIPOS>MOLECULE
*****
   15    15     0     0     0
SMALL
NO_CHARGES

@<TRIPOS>ATOM
      1 C1          2.8051   -0.2590    3.6898 C.1       1 <0>         0.0000
      2 C2          0.2584   -0.5158    0.9360 C.ar      1 <0>         0.0000
      3 C3         -0.6180   -1.3825    1.5930 C.ar      1 <0>         0.0000
      4 C4          0.7059   -1.4584    3.4558 C.ar      1 <0>         0.0000
      5 C5          1.6589   -0.5878    2.8895 C.ar      1 <0>         0.0000
      6 C6          1.4237   -0.1031    1.5873 C.ar      1 <0>         0.0000
      7 C7          2.3946    0.8237    0.9281 C.2       1 <0>         0.0000
      8 N1          3.6763   -0.0782    4.4414 N.1       1 <0>         0.0000
      9 N2         -0.4055   -1.8502    2.8309 N.ar      1 <0>         0.0000
     10 O1          3.4231    1.2209    1.4329 O.2       1 <0>         0.0000
     11 O2          1.9967    1.1822   -0.3203 O.3       1 <0>         0.0000
     12 H1          0.0400   -0.1662   -0.0661 H         1 <0>         0.0000
     13 H2         -1.5307   -1.7155    1.1030 H         1 <0>         0.0000
     14 H3          0.8682   -1.8439    4.4598 H         1 <0>         0.0000
     15 H4          2.6870    1.7812   -0.6649 H         1 <0>         0.0000
@<TRIPOS>BOND
     1    1    5 1
     2    1    8 3
     3    2    3 ar
     4    2    6 ar
     5    2   12 1
     6    3    9 ar
     7    3   13 1
     8    4    5 ar
     9    4    9 ar
    10    4   14 1
    11    5    6 ar
    12    6    7 1
    13    7   10 2
    14    7   11 1
    15   11   15 1
