@<TRIPOS>MOLECULE
*****
   44    46     0     0     0
SMALL
NO_CHARGES

@<TRIPOS>ATOM
      1 C1         -6.0838    0.7590   -1.3998 C.ar      1 <0>         0.0000
      2 C2         -6.5403   -0.4330   -0.8326 C.ar      1 <0>         0.0000
      3 C3         -4.7883    0.7994   -1.9173 C.ar      1 <0>         0.0000
      4 C4         -5.6721   -1.5286   -0.8151 C.ar      1 <0>         0.0000
      5 C5         -3.9868   -0.3502   -1.8548 C.ar      1 <0>         0.0000
      6 C6         -0.4002    1.7103   -0.0004 C.3       1 <0>         0.0000
      7 C7         -0.1878    0.6905    1.1249 C.3       1 <0>         0.0000
      8 C8         -0.1144   -1.7758    1.7577 C.3       1 <0>         0.0000
      9 C9         -1.6372    1.3637   -0.8318 C.3       1 <0>         0.0000
     10 C10         1.3846   -1.8729    2.1000 C.3       1 <0>         0.0000
     11 C11        -1.4723   -0.9747   -0.2376 C.3       1 <0>         0.0000
     12 C12         1.0731   -1.0783   -0.1939 C.3       1 <0>         0.0000
     13 C13        -0.2083   -0.7591    0.5985 C.3       1 <0>         0.0000
     14 C14         3.6049   -3.4050   -0.1012 C.3       1 <0>         0.0000
     15 C15        -2.5494   -0.3421   -2.3488 C.3       1 <0>         0.0000
     16 N1         -4.4274   -1.4998   -1.3096 N.ar      1 <0>         0.0000
     17 N2         -1.5414   -0.0084   -1.3353 N.3       1 <0>         0.0000
     18 N3          2.0416   -1.3443    0.8829 N.pl3     1 <0>         0.0000
     19 O1          4.3313   -1.7462    1.8226 O.2       1 <0>         0.0000
     20 O2          4.0387   -0.8428   -0.5579 O.2       1 <0>         0.0000
     21 S1          3.6171   -1.7119    0.5436 S.o2      1 <0>         0.0000
     22 H1         -6.7241    1.6367   -1.4409 H         1 <0>         0.0000
     23 H2         -7.5410   -0.5184   -0.4188 H         1 <0>         0.0000
     24 H3         -4.3988    1.7068   -2.3709 H         1 <0>         0.0000
     25 H4         -5.9936   -2.4771   -0.3864 H         1 <0>         0.0000
     26 H5         -0.5145    2.7148    0.4227 H         1 <0>         0.0000
     27 H6          0.4753    1.7384   -0.6573 H         1 <0>         0.0000
     28 H7          0.7528    0.8912    1.6486 H         1 <0>         0.0000
     29 H8         -0.9957    0.7965    1.8613 H         1 <0>         0.0000
     30 H9         -0.4839   -2.7501    1.4175 H         1 <0>         0.0000
     31 H10        -0.7136   -1.4787    2.6225 H         1 <0>         0.0000
     32 H11        -2.5451    1.5112   -0.2163 H         1 <0>         0.0000
     33 H12        -1.7144    2.0417   -1.6893 H         1 <0>         0.0000
     34 H13         1.6667   -1.2578    2.9576 H         1 <0>         0.0000
     35 H14         1.6861   -2.9034    2.3183 H         1 <0>         0.0000
     36 H15        -1.4763   -1.9831   -0.6638 H         1 <0>         0.0000
     37 H16        -2.3537   -0.9122    0.4262 H         1 <0>         0.0000
     38 H17         0.9094   -1.9596   -0.8333 H         1 <0>         0.0000
     39 H18         1.4267   -0.2634   -0.8217 H         1 <0>         0.0000
     40 H19         4.6399   -3.6700   -0.3244 H         1 <0>         0.0000
     41 H20         3.2019   -4.0729    0.6619 H         1 <0>         0.0000
     42 H21         3.0040   -3.4322   -1.0116 H         1 <0>         0.0000
     43 H22        -2.3168   -1.3372   -2.7390 H         1 <0>         0.0000
     44 H23        -2.4428    0.3764   -3.1690 H         1 <0>         0.0000
@<TRIPOS>BOND
     1    1    2 ar
     2    1    3 ar
     3    1   22 1
     4    2    4 ar
     5    2   23 1
     6    3    5 ar
     7    3   24 1
     8    4   16 ar
     9    4   25 1
    10    5   15 1
    11    5   16 ar
    12    6    7 1
    13    6    9 1
    14    6   26 1
    15    6   27 1
    16    7   13 1
    17    7   28 1
    18    7   29 1
    19    8   10 1
    20    8   13 1
    21    8   30 1
    22    8   31 1
    23    9   17 1
    24    9   32 1
    25    9   33 1
    26   10   18 1
    27   10   34 1
    28   10   35 1
    29   11   13 1
    30   11   17 1
    31   11   36 1
    32   11   37 1
    33   12   13 1
    34   12   18 1
    35   12   38 1
    36   12   39 1
    37   14   21 1
    38   14   40 1
    39   14   41 1
    40   14   42 1
    41   15   17 1
    42   15   43 1
    43   15   44 1
    44   18   21 1
    45   19   21 2
    46   20   21 2
