@<TRIPOS>MOLECULE
*****
   27    28     0     0     0
SMALL
NO_CHARGES

@<TRIPOS>ATOM
      1 C1         -1.3875    4.4311    2.6867 C.1       1 <0>         0.0000
      2 C2          1.6260   -2.7433    1.1931 C.ar      1 <0>         0.0000
      3 C3          0.7751   -1.8165    1.7947 C.ar      1 <0>         0.0000
      4 C4          2.9121   -2.3716    0.7886 C.ar      1 <0>         0.0000
      5 C5          2.4918   -0.1140    1.5993 C.ar      1 <0>         0.0000
      6 C6         -0.5275    4.5218    1.5601 C.2       1 <0>         0.0000
      7 C7          1.1912   -0.4870    1.9888 C.ar      1 <0>         0.0000
      8 C8          3.3313   -1.0579    1.0078 C.ar      1 <0>         0.0000
      9 C9          0.3445    3.5886    1.0497 C.2       1 <0>         0.0000
     10 C10         0.4176    5.4066   -0.1610 C.2       1 <0>         0.0000
     11 C11         0.2565    0.4582    2.6361 C.2       1 <0>         0.0000
     12 C12         0.9032    6.2399   -1.2911 C.3       1 <0>         0.0000
     13 N1         -2.1044    4.3893    3.6056 N.1       1 <0>         0.0000
     14 N2         -0.4484    5.6743    0.7551 N.2       1 <0>         0.0000
     15 N3          0.0520    1.7067    2.3932 N.2       1 <0>         0.0000
     16 N4          0.7555    2.3269    1.4009 N.pl3     1 <0>         0.0000
     17 O1          0.9574    4.1233   -0.0407 O.3       1 <0>         0.0000
     18 Cl1         4.9530   -0.5806    0.5385 Cl        1 <0>         0.0000
     19 H1          1.2926   -3.7655    1.0379 H         1 <0>         0.0000
     20 H2         -0.2208   -2.1163    2.1100 H         1 <0>         0.0000
     21 H3          3.5809   -3.0877    0.3220 H         1 <0>         0.0000
     22 H4          2.8700    0.8823    1.8033 H         1 <0>         0.0000
     23 H5         -0.3870    0.0583    3.4180 H         1 <0>         0.0000
     24 H6          1.9849    6.3965   -1.2272 H         1 <0>         0.0000
     25 H7          0.6882    5.7618   -2.2524 H         1 <0>         0.0000
     26 H8          0.3989    7.2059   -1.2520 H         1 <0>         0.0000
     27 H9          1.2169    1.7810    0.6724 H         1 <0>         0.0000
@<TRIPOS>BOND
     1    1    6 1
     2    1   13 3
     3    2    3 ar
     4    2    4 ar
     5    2   19 1
     6    3    7 ar
     7    3   20 1
     8    4    8 ar
     9    4   21 1
    10    5    7 ar
    11    5    8 ar
    12    5   22 1
    13    6    9 2
    14    6   14 1
    15    7   11 1
    16    8   18 1
    17    9   16 1
    18    9   17 1
    19   10   12 1
    20   10   14 2
    21   10   17 1
    22   11   15 2
    23   11   23 1
    24   12   24 1
    25   12   25 1
    26   12   26 1
    27   15   16 1
    28   16   27 1
