@<TRIPOS>MOLECULE
*****
   44    46     0     0     0
SMALL
NO_CHARGES

@<TRIPOS>ATOM
      1 C1         -0.1622   -1.8426   -4.8071 C.ar      1 <0>         0.0000
      2 C2         -1.1108   -2.7593   -5.2725 C.ar      1 <0>         0.0000
      3 C3         -0.5640   -0.8652   -3.8984 C.ar      1 <0>         0.0000
      4 C4         -2.4200   -2.6482   -4.7994 C.ar      1 <0>         0.0000
      5 C5         -1.9036   -0.8360   -3.4809 C.ar      1 <0>         0.0000
      6 C6         -0.5679    2.0996    0.2138 C.3       1 <0>         0.0000
      7 C7         -0.3035    0.9383    1.1804 C.3       1 <0>         0.0000
      8 C8          0.0050   -1.5793    1.4265 C.3       1 <0>         0.0000
      9 C9         -1.6980    1.7668   -0.7619 C.3       1 <0>         0.0000
     10 C10         1.4813   -1.5703    1.8636 C.3       1 <0>         0.0000
     11 C11        -1.3105   -0.5986   -0.5204 C.3       1 <0>         0.0000
     12 C12         1.2143   -0.4640   -0.3044 C.3       1 <0>         0.0000
     13 C13        -0.1345   -0.4022    0.4368 C.3       1 <0>         0.0000
     14 C14         3.8895   -2.6215   -0.3926 C.3       1 <0>         0.0000
     15 C15        -2.3905    0.2290   -2.5161 C.3       1 <0>         0.0000
     16 N1         -2.8171   -1.7154   -3.9202 N.ar      1 <0>         0.0000
     17 N2         -1.4144    0.5138   -1.4667 N.3       1 <0>         0.0000
     18 N3          2.1491   -0.8155    0.7779 N.pl3     1 <0>         0.0000
     19 O1          4.4292   -1.1854    1.7584 O.2       1 <0>         0.0000
     20 O2          4.1521    0.0024   -0.4969 O.2       1 <0>         0.0000
     21 S1          3.7589   -1.0305    0.4652 S.o2      1 <0>         0.0000
     22 H1          0.8688   -1.8882   -5.1498 H         1 <0>         0.0000
     23 H2         -0.8472   -3.5397   -5.9808 H         1 <0>         0.0000
     24 H3          0.1311   -0.1330   -3.4999 H         1 <0>         0.0000
     25 H4         -3.1881   -3.3435   -5.1355 H         1 <0>         0.0000
     26 H5         -0.8259    3.0029    0.7777 H         1 <0>         0.0000
     27 H6          0.3375    2.3298   -0.3577 H         1 <0>         0.0000
     28 H7          0.5795    1.1473    1.7933 H         1 <0>         0.0000
     29 H8         -1.1557    0.8413    1.8661 H         1 <0>         0.0000
     30 H9         -0.2252   -2.5183    0.9098 H         1 <0>         0.0000
     31 H10        -0.6755   -1.4935    2.2779 H         1 <0>         0.0000
     32 H11        -2.6592    1.7057   -0.2130 H         1 <0>         0.0000
     33 H12        -1.7996    2.5659   -1.5037 H         1 <0>         0.0000
     34 H13         1.6403   -1.0529    2.8127 H         1 <0>         0.0000
     35 H14         1.8819   -2.5842    1.9691 H         1 <0>         0.0000
     36 H15        -1.1755   -1.5273   -1.0839 H         1 <0>         0.0000
     37 H16        -2.2448   -0.7107    0.0656 H         1 <0>         0.0000
     38 H17         1.1751   -1.2359   -1.0884 H         1 <0>         0.0000
     39 H18         1.5136    0.4746   -0.7659 H         1 <0>         0.0000
     40 H19         4.9472   -2.7826   -0.6081 H         1 <0>         0.0000
     41 H20         3.5151   -3.4105    0.2616 H         1 <0>         0.0000
     42 H21         3.3185   -2.5710   -1.3211 H         1 <0>         0.0000
     43 H22        -2.5582    1.1553   -3.0793 H         1 <0>         0.0000
     44 H23        -3.3700   -0.0877   -2.1207 H         1 <0>         0.0000
@<TRIPOS>BOND
     1    1    2 ar
     2    1    3 ar
     3    1   22 1
     4    2    4 ar
     5    2   23 1
     6    3    5 ar
     7    3   24 1
     8    4   16 ar
     9    4   25 1
    10    5   15 1
    11    5   16 ar
    12    6    7 1
    13    6    9 1
    14    6   26 1
    15    6   27 1
    16    7   13 1
    17    7   28 1
    18    7   29 1
    19    8   10 1
    20    8   13 1
    21    8   30 1
    22    8   31 1
    23    9   17 1
    24    9   32 1
    25    9   33 1
    26   10   18 1
    27   10   34 1
    28   10   35 1
    29   11   13 1
    30   11   17 1
    31   11   36 1
    32   11   37 1
    33   12   13 1
    34   12   18 1
    35   12   38 1
    36   12   39 1
    37   14   21 1
    38   14   40 1
    39   14   41 1
    40   14   42 1
    41   15   17 1
    42   15   43 1
    43   15   44 1
    44   18   21 1
    45   19   21 2
    46   20   21 2
