@<TRIPOS>MOLECULE
*****
   35    37     0     0     0
SMALL
NO_CHARGES

@<TRIPOS>ATOM
      1 C1          8.3663   -2.1576    1.8860 C.1       1 <0>         0.0000
      2 C2          7.1177    0.2107    7.9383 C.ar      1 <0>         0.0000
      3 C3          2.3870   -1.5614   -1.0621 C.ar      1 <0>         0.0000
      4 C4          6.3418    0.4776    6.8030 C.ar      1 <0>         0.0000
      5 C5          8.2739   -0.5681    7.8236 C.ar      1 <0>         0.0000
      6 C6          1.0494   -1.7364   -0.6970 C.ar      1 <0>         0.0000
      7 C7          3.3768   -1.6326   -0.0855 C.ar      1 <0>         0.0000
      8 C8          6.7008   -0.0491    5.5651 C.ar      1 <0>         0.0000
      9 C9          8.6465   -1.0790    6.5810 C.ar      1 <0>         0.0000
     10 C10         0.7208   -1.9807    0.6384 C.ar      1 <0>         0.0000
     11 C11         3.0497   -1.8784    1.2620 C.ar      1 <0>         0.0000
     12 C12         7.8525   -0.8518    5.4383 C.ar      1 <0>         0.0000
     13 C13         1.6965   -2.0584    1.6423 C.ar      1 <0>         0.0000
     14 C14         4.1718   -1.9347    2.2121 C.2       1 <0>         0.0000
     15 C15         6.1643   -1.8499    2.9024 C.2       1 <0>         0.0000
     16 C16         8.3157   -1.4062    4.1685 C.2       1 <0>         0.0000
     17 C17         7.6212   -1.7688    3.0533 C.2       1 <0>         0.0000
     18 C18         1.2640   -2.3279    3.0627 C.3       1 <0>         0.0000
     19 N1          8.9914   -2.4709    0.9539 N.1       1 <0>         0.0000
     20 N2          5.4827   -1.7306    1.7997 N.2       1 <0>         0.0000
     21 N3          4.0649   -2.1748    3.5086 N.2       1 <0>         0.0000
     22 O1          5.3942   -2.1308    3.9734 O.3       1 <0>         0.0000
     23 H1          6.8296    0.6200    8.9029 H         1 <0>         0.0000
     24 H2          2.6573   -1.3724   -2.0973 H         1 <0>         0.0000
     25 H3          5.4565    1.1021    6.8841 H         1 <0>         0.0000
     26 H4          8.8880   -0.7675    8.6973 H         1 <0>         0.0000
     27 H5          0.2640   -1.6841   -1.4467 H         1 <0>         0.0000
     28 H6          4.4201   -1.5013   -0.3501 H         1 <0>         0.0000
     29 H7          6.1014    0.1876    4.6936 H         1 <0>         0.0000
     30 H8          9.5521   -1.6744    6.4912 H         1 <0>         0.0000
     31 H9         -0.3221   -2.1165    0.9139 H         1 <0>         0.0000
     32 H10         9.3937   -1.5370    4.0966 H         1 <0>         0.0000
     33 H11         1.7157   -3.2447    3.4529 H         1 <0>         0.0000
     34 H12         1.5769   -1.5258    3.7377 H         1 <0>         0.0000
     35 H13         0.1765   -2.4244    3.1156 H         1 <0>         0.0000
@<TRIPOS>BOND
     1    1   17 1
     2    1   19 3
     3    2    5 ar
     4    2    4 ar
     5    2   23 1
     6    3    6 ar
     7    3    7 ar
     8    3   24 1
     9    4    8 ar
    10    4   25 1
    11    5    9 ar
    12    5   26 1
    13    6   10 ar
    14    6   27 1
    15    7   11 ar
    16    7   28 1
    17    8   12 ar
    18    8   29 1
    19    9   12 ar
    20    9   30 1
    21   10   13 ar
    22   10   31 1
    23   11   13 ar
    24   11   14 1
    25   12   16 1
    26   13   18 1
    27   14   20 1
    28   14   21 2
    29   15   17 1
    30   15   20 2
    31   15   22 1
    32   16   17 2
    33   16   32 1
    34   18   33 1
    35   18   34 1
    36   18   35 1
    37   21   22 1
