@<TRIPOS>MOLECULE
*****
   36    39     0     0     0
SMALL
NO_CHARGES

@<TRIPOS>ATOM
      1 C1          6.6512   -3.7803    2.5436 C.2       1 <0>         0.0000
      2 C2          4.9323   -4.9767    2.4931 C.2       1 <0>         0.0000
      3 C3          2.4382   -3.6618    0.8156 C.2       1 <0>         0.0000
      4 C4          2.1894   -3.4529    3.1097 C.2       1 <0>         0.0000
      5 C5          0.4067   -1.5495   -0.8643 C.3       1 <0>         0.0000
      6 C6          1.3497   -0.4167   -0.4294 C.3       1 <0>         0.0000
      7 C7          7.5884   -1.7291    1.3224 C.3       1 <0>         0.0000
      8 C8          7.2382   -1.2899    2.7121 C.3       1 <0>         0.0000
      9 C9          0.2666   -2.3877    0.4132 C.3       1 <0>         0.0000
     10 C10         2.4111   -1.1422    0.4177 C.3       1 <0>         0.0000
     11 C11         7.6713   -2.7329    2.4683 C.3       1 <0>         0.0000
     12 C12         1.6779   -2.3554    1.0728 C.3       1 <0>         0.0000
     13 C13         3.5080   -5.4059    2.2429 C.3       1 <0>         0.0000
     14 N1          5.3916   -3.7143    2.1919 N.2       1 <0>         0.0000
     15 N2          5.8282   -5.7872    2.9997 N.2       1 <0>         0.0000
     16 N3          1.6489   -2.3379    2.5318 N.am      1 <0>         0.0000
     17 N4          2.6495   -4.2593    2.0410 N.am      1 <0>         0.0000
     18 O1          2.7800   -4.1001   -0.2697 O.2       1 <0>         0.0000
     19 O2          2.2763   -3.7407    4.2914 O.2       1 <0>         0.0000
     20 O3          6.9974   -4.9857    3.0327 O.3       1 <0>         0.0000
     21 H1         -0.5575   -1.1935   -1.2397 H         1 <0>         0.0000
     22 H2          0.8779   -2.1480   -1.6511 H         1 <0>         0.0000
     23 H3          1.7877    0.1278   -1.2708 H         1 <0>         0.0000
     24 H4          0.8000    0.3099    0.1822 H         1 <0>         0.0000
     25 H5          6.7768   -1.8755    0.6174 H         1 <0>         0.0000
     26 H6          8.5314   -1.4053    0.8930 H         1 <0>         0.0000
     27 H7          7.9363   -0.6600    3.2546 H         1 <0>         0.0000
     28 H8          6.1899   -1.1400    2.9477 H         1 <0>         0.0000
     29 H9         -0.4408   -1.9093    1.1007 H         1 <0>         0.0000
     30 H10        -0.0846   -3.4075    0.2365 H         1 <0>         0.0000
     31 H11         3.2066   -1.5224   -0.2284 H         1 <0>         0.0000
     32 H12         2.8737   -0.5161    1.1842 H         1 <0>         0.0000
     33 H13         8.6539   -3.0350    2.8129 H         1 <0>         0.0000
     34 H14         3.4599   -6.0171    1.3386 H         1 <0>         0.0000
     35 H15         3.1424   -5.9891    3.0893 H         1 <0>         0.0000
     36 H16         1.1074   -1.6897    3.0868 H         1 <0>         0.0000
@<TRIPOS>BOND
     1    1   11 1
     2    1   14 2
     3    1   20 1
     4    2   13 1
     5    2   14 1
     6    2   15 2
     7    3   12 1
     8    3   17 am
     9    3   18 2
    10    4   16 am
    11    4   17 am
    12    4   19 2
    13    5    6 1
    14    5    9 1
    15    5   21 1
    16    5   22 1
    17    6   10 1
    18    6   23 1
    19    6   24 1
    20    7    8 1
    21    7   11 1
    22    7   25 1
    23    7   26 1
    24    8   11 1
    25    8   27 1
    26    8   28 1
    27    9   12 1
    28    9   29 1
    29    9   30 1
    30   10   12 1
    31   10   31 1
    32   10   32 1
    33   11   33 1
    34   12   16 1
    35   13   17 1
    36   13   34 1
    37   13   35 1
    38   15   20 1
    39   16   36 1
