@<TRIPOS>MOLECULE
*****
   27    28     0     0     0
SMALL
NO_CHARGES

@<TRIPOS>ATOM
      1 C1          1.0291    2.8312    1.9183 C.1       1 <0>         0.0000
      2 C2          1.2533    1.6559    1.7171 C.1       1 <0>         0.0000
      3 C3          1.0377   -1.8063    0.3316 C.ar      1 <0>         0.0000
      4 C4          0.7581   -0.4579    0.5441 C.ar      1 <0>         0.0000
      5 C5          2.0588   -2.4606    1.0264 C.ar      1 <0>         0.0000
      6 C6          5.6113   -3.2331    4.8816 C.ar      1 <0>         0.0000
      7 C7          2.5453   -0.3802    2.1829 C.ar      1 <0>         0.0000
      8 C8          6.4418   -4.8214    3.2781 C.ar      1 <0>         0.0000
      9 C9          6.6721   -3.5973    5.7112 C.ar      1 <0>         0.0000
     10 C10         1.5189    0.2685    1.4799 C.ar      1 <0>         0.0000
     11 C11         5.4974   -3.8551    3.6290 C.ar      1 <0>         0.0000
     12 C12         2.8180   -1.7374    1.9616 C.ar      1 <0>         0.0000
     13 C13         7.4678   -5.0883    4.1896 C.ar      1 <0>         0.0000
     14 C14         4.3888   -3.5764    2.6442 C.2       1 <0>         0.0000
     15 N1          7.5982   -4.5062    5.3721 N.ar      1 <0>         0.0000
     16 N2          3.8617   -2.3096    2.7245 N.am      1 <0>         0.0000
     17 O1          4.0232   -4.4347    1.8462 O.2       1 <0>         0.0000
     18 Cl1         8.6825   -6.2808    3.7579 Cl        1 <0>         0.0000
     19 H1          0.8282    3.8673    2.0916 H         1 <0>         0.0000
     20 H2          0.4523   -2.3681   -0.3911 H         1 <0>         0.0000
     21 H3         -0.0366    0.0409   -0.0014 H         1 <0>         0.0000
     22 H4          2.2726   -3.5053    0.8507 H         1 <0>         0.0000
     23 H5          4.8799   -2.5146    5.2400 H         1 <0>         0.0000
     24 H6          3.1286    0.1870    2.9046 H         1 <0>         0.0000
     25 H7          6.3682   -5.3416    2.3302 H         1 <0>         0.0000
     26 H8          6.7857   -3.1464    6.6949 H         1 <0>         0.0000
     27 H9          4.3363   -1.6664    3.3447 H         1 <0>         0.0000
@<TRIPOS>BOND
     1    1    2 3
     2    1   19 1
     3    2   10 1
     4    3    4 ar
     5    3    5 ar
     6    3   20 1
     7    4   10 ar
     8    4   21 1
     9    5   12 ar
    10    5   22 1
    11    6    9 ar
    12    6   11 ar
    13    6   23 1
    14    7   10 ar
    15    7   12 ar
    16    7   24 1
    17    8   11 ar
    18    8   13 ar
    19    8   25 1
    20    9   15 ar
    21    9   26 1
    22   11   14 1
    23   12   16 1
    24   13   15 ar
    25   13   18 1
    26   14   16 am
    27   14   17 2
    28   16   27 1
