@<TRIPOS>MOLECULE
*****
   31    33     0     0     0
SMALL
NO_CHARGES

@<TRIPOS>ATOM
      1 C1          2.7296    2.1550   -4.6927 C.1       1 <0>         0.0000
      2 C2          1.6132    2.6303   -2.5258 C.ar      1 <0>         0.0000
      3 C3         -0.9920   -2.3376    2.2028 C.ar      1 <0>         0.0000
      4 C4         -0.6612   -1.1021    1.6441 C.ar      1 <0>         0.0000
      5 C5          1.0062    2.1476   -1.3870 C.ar      1 <0>         0.0000
      6 C6          0.3122   -2.2008   -0.2989 C.ar      1 <0>         0.0000
      7 C7          1.9167    0.3490   -3.2287 C.ar      1 <0>         0.0000
      8 C8          2.0914    1.7148   -3.4916 C.ar      1 <0>         0.0000
      9 C9         -0.6774   -3.5079    1.5125 C.ar      1 <0>         0.0000
     10 C10        -0.0303   -3.4251    0.2726 C.ar      1 <0>         0.0000
     11 C11        -0.0105   -1.0210    0.3963 C.ar      1 <0>         0.0000
     12 C12         0.8777    0.7408   -1.2146 C.ar      1 <0>         0.0000
     13 C13        -0.9059   -4.9540    1.9005 C.3       1 <0>         0.0000
     14 C14         0.2311   -4.8133   -0.2757 C.3       1 <0>         0.0000
     15 C15        -0.7253   -5.7042    0.5562 C.3       1 <0>         0.0000
     16 N1          3.2506    2.5134   -5.6733 N.1       1 <0>         0.0000
     17 N2          1.3315   -0.1325   -2.1315 N.ar      1 <0>         0.0000
     18 N3          0.2704    0.2820   -0.0726 N.pl3     1 <0>         0.0000
     19 H1          1.7253    3.6986   -2.6843 H         1 <0>         0.0000
     20 H2         -1.4965   -2.3736    3.1657 H         1 <0>         0.0000
     21 H3         -0.9143   -0.1869    2.1773 H         1 <0>         0.0000
     22 H4          0.6301    2.8305   -0.6295 H         1 <0>         0.0000
     23 H5          0.8088   -2.1414   -1.2570 H         1 <0>         0.0000
     24 H6          2.2705   -0.3886   -3.9467 H         1 <0>         0.0000
     25 H7         -0.1502   -5.2742    2.6312 H         1 <0>         0.0000
     26 H8         -1.8860   -5.1296    2.3557 H         1 <0>         0.0000
     27 H9          0.0568   -4.8892   -1.3535 H         1 <0>         0.0000
     28 H10         1.2791   -5.0916   -0.0993 H         1 <0>         0.0000
     29 H11        -0.3538   -6.7247    0.6842 H         1 <0>         0.0000
     30 H12        -1.6931   -5.7647    0.0467 H         1 <0>         0.0000
     31 H13        -0.0375    1.0139    0.5541 H         1 <0>         0.0000
@<TRIPOS>BOND
     1    1    8 1
     2    1   16 3
     3    2    5 ar
     4    2    8 ar
     5    2   19 1
     6    3    4 ar
     7    3    9 ar
     8    3   20 1
     9    4   11 ar
    10    4   21 1
    11    5   12 ar
    12    5   22 1
    13    6   10 ar
    14    6   11 ar
    15    6   23 1
    16    7    8 ar
    17    7   17 ar
    18    7   24 1
    19    9   10 ar
    20    9   13 1
    21   10   14 1
    22   11   18 1
    23   12   17 ar
    24   12   18 1
    25   13   15 1
    26   13   25 1
    27   13   26 1
    28   14   15 1
    29   14   27 1
    30   14   28 1
    31   15   29 1
    32   15   30 1
    33   18   31 1
