@<TRIPOS>MOLECULE
*****
   35    37     0     0     0
SMALL
NO_CHARGES

@<TRIPOS>ATOM
      1 C1          7.9357   -4.1719    3.5351 C.1       1 <0>         0.0000
      2 C2          7.2810    1.8667    6.2063 C.ar      1 <0>         0.0000
      3 C3          0.9919   -1.7713    0.1457 C.ar      1 <0>         0.0000
      4 C4          6.3099    1.3534    5.3384 C.ar      1 <0>         0.0000
      5 C5          8.4191    1.1071    6.5016 C.ar      1 <0>         0.0000
      6 C6          0.4522   -0.6477    0.7785 C.ar      1 <0>         0.0000
      7 C7          2.1607   -2.3395    0.6438 C.ar      1 <0>         0.0000
      8 C8          6.4609    0.0926    4.7657 C.ar      1 <0>         0.0000
      9 C9          8.5757   -0.1532    5.9323 C.ar      1 <0>         0.0000
     10 C10         1.0879   -0.1131    1.9001 C.ar      1 <0>         0.0000
     11 C11         2.8076   -1.8008    1.7730 C.ar      1 <0>         0.0000
     12 C12         7.5997   -0.6897    5.0569 C.ar      1 <0>         0.0000
     13 C13         2.2674   -0.6662    2.4217 C.ar      1 <0>         0.0000
     14 C14         4.0324   -2.4825    2.2301 C.2       1 <0>         0.0000
     15 C15         5.9242   -2.8701    3.0943 C.2       1 <0>         0.0000
     16 C16         7.8798   -2.0202    4.5419 C.2       1 <0>         0.0000
     17 C17         7.2283   -2.9324    3.7506 C.2       1 <0>         0.0000
     18 C18         2.8884   -0.0221    3.6400 C.3       1 <0>         0.0000
     19 N1          8.5380   -5.1574    3.3819 N.1       1 <0>         0.0000
     20 N2          5.0476   -1.9052    2.9723 N.2       1 <0>         0.0000
     21 N3          4.2693   -3.7444    1.9160 N.2       1 <0>         0.0000
     22 O1          5.5217   -4.0051    2.4774 O.3       1 <0>         0.0000
     23 H1          7.1538    2.8519    6.6475 H         1 <0>         0.0000
     24 H2          0.5094   -2.1984   -0.7290 H         1 <0>         0.0000
     25 H3          5.4271    1.9429    5.1048 H         1 <0>         0.0000
     26 H4          9.1796    1.4976    7.1720 H         1 <0>         0.0000
     27 H5         -0.4593   -0.1900    0.4027 H         1 <0>         0.0000
     28 H6          2.5936   -3.2089    0.1597 H         1 <0>         0.0000
     29 H7          5.7110   -0.2942    4.0914 H         1 <0>         0.0000
     30 H8          9.4615   -0.7391    6.1659 H         1 <0>         0.0000
     31 H9          0.6581    0.7563    2.3917 H         1 <0>         0.0000
     32 H10         8.8438   -2.3943    4.8799 H         1 <0>         0.0000
     33 H11         3.1966   -0.7561    4.3877 H         1 <0>         0.0000
     34 H12         3.7809    0.5484    3.3653 H         1 <0>         0.0000
     35 H13         2.1780    0.6667    4.1047 H         1 <0>         0.0000
@<TRIPOS>BOND
     1    1   17 1
     2    1   19 3
     3    2    5 ar
     4    2    4 ar
     5    2   23 1
     6    3    6 ar
     7    3    7 ar
     8    3   24 1
     9    4    8 ar
    10    4   25 1
    11    5    9 ar
    12    5   26 1
    13    6   10 ar
    14    6   27 1
    15    7   11 ar
    16    7   28 1
    17    8   12 ar
    18    8   29 1
    19    9   12 ar
    20    9   30 1
    21   10   13 ar
    22   10   31 1
    23   11   13 ar
    24   11   14 1
    25   12   16 1
    26   13   18 1
    27   14   20 1
    28   14   21 2
    29   15   17 1
    30   15   20 2
    31   15   22 1
    32   16   17 2
    33   16   32 1
    34   18   33 1
    35   18   34 1
    36   18   35 1
    37   21   22 1
