@<TRIPOS>MOLECULE
*****
   34    36     0     0     0
SMALL
NO_CHARGES

@<TRIPOS>ATOM
      1 C1         -0.4470   -2.9546  -12.9764 C.1       1 <0>         0.0000
      2 C2          2.7517    2.8930   -5.1075 C.ar      1 <0>         0.0000
      3 C3          2.9275    2.1471   -3.9286 C.ar      1 <0>         0.0000
      4 C4          2.1907    2.3150   -6.2465 C.ar      1 <0>         0.0000
      5 C5          2.5426    0.8044   -3.8694 C.ar      1 <0>         0.0000
      6 C6         -0.1480   -3.1341  -10.4635 C.2       1 <0>         0.0000
      7 C7         -0.7937   -3.3716  -11.6677 C.2       1 <0>         0.0000
      8 C8         -0.8949   -3.7989   -9.4435 C.2       1 <0>         0.0000
      9 C9          1.7999    0.9688   -6.2054 C.ar      1 <0>         0.0000
     10 C10         1.9823    0.2278   -5.0106 C.ar      1 <0>         0.0000
     11 C11        -1.9830   -4.4245  -10.0747 C.2       1 <0>         0.0000
     12 C12         0.9831   -0.9600   -6.8941 C.2       1 <0>         0.0000
     13 C13        -0.6007   -3.9089   -8.0155 C.2       1 <0>         0.0000
     14 C14        -3.0925   -5.2414   -9.4947 C.3       1 <0>         0.0000
     15 C15        -2.8891   -4.5851  -12.4116 C.3       1 <0>         0.0000
     16 N1         -0.1785   -2.6206  -14.0628 N.1       1 <0>         0.0000
     17 N2          1.2290    0.2620   -7.2590 N.2       1 <0>         0.0000
     18 N3          0.0171   -3.0784   -7.2429 N.2       1 <0>         0.0000
     19 N4         -1.9130   -4.1601  -11.4154 N.pl3     1 <0>         0.0000
     20 N5          0.4525   -1.8942   -7.7559 N.pl3     1 <0>         0.0000
     21 S1          1.4006   -1.4217   -5.2356 S.3       1 <0>         0.0000
     22 H1          3.0581    3.9354   -5.1312 H         1 <0>         0.0000
     23 H2          3.3672    2.6162   -3.0527 H         1 <0>         0.0000
     24 H3          2.0511    2.8829   -7.1617 H         1 <0>         0.0000
     25 H4          2.6787    0.2296   -2.9575 H         1 <0>         0.0000
     26 H5          0.7894   -2.6047  -10.3628 H         1 <0>         0.0000
     27 H6         -0.9315   -4.8093   -7.5026 H         1 <0>         0.0000
     28 H7         -4.0730   -4.8065   -9.7200 H         1 <0>         0.0000
     29 H8         -3.0884   -6.2663   -9.8840 H         1 <0>         0.0000
     30 H9         -2.9992   -5.2932   -8.4093 H         1 <0>         0.0000
     31 H10        -3.0366   -5.6665  -12.3585 H         1 <0>         0.0000
     32 H11        -3.8481   -4.0831  -12.2516 H         1 <0>         0.0000
     33 H12        -2.5198   -4.3296  -13.4045 H         1 <0>         0.0000
     34 H13         0.0535   -1.5163   -8.6148 H         1 <0>         0.0000
@<TRIPOS>BOND
     1    1    7 1
     2    1   16 3
     3    2    3 ar
     4    2    4 ar
     5    2   22 1
     6    3    5 ar
     7    3   23 1
     8    4    9 ar
     9    4   24 1
    10    5   10 ar
    11    5   25 1
    12    6    7 2
    13    6    8 1
    14    6   26 1
    15    7   19 1
    16    8   11 2
    17    8   13 1
    18    9   10 ar
    19    9   17 1
    20   10   21 1
    21   11   14 1
    22   11   19 1
    23   12   17 2
    24   12   20 1
    25   12   21 1
    26   13   18 2
    27   13   27 1
    28   14   28 1
    29   14   29 1
    30   14   30 1
    31   15   19 1
    32   15   31 1
    33   15   32 1
    34   15   33 1
    35   18   20 1
    36   20   34 1
