@<TRIPOS>MOLECULE
*****
   31    33     0     0     0
SMALL
NO_CHARGES

@<TRIPOS>ATOM
      1 C1         -6.0325    4.4327   -0.2670 C.1       1 <0>         0.0000
      2 C2         -3.9093   -3.0076    1.6741 C.ar      1 <0>         0.0000
      3 C3         -4.4068   -3.7877    2.7138 C.ar      1 <0>         0.0000
      4 C4         -4.9757   -1.7965    4.0332 C.ar      1 <0>         0.0000
      5 C5         -3.7859    0.6187    1.5496 C.2       1 <0>         0.0000
      6 C6         -5.9825    5.0423    1.0099 C.2       1 <0>         0.0000
      7 C7         -4.4701   -0.9972    2.9922 C.ar      1 <0>         0.0000
      8 C8         -4.3643    0.4377    2.8037 C.2       1 <0>         0.0000
      9 C9         -3.9460   -1.6177    1.8284 C.ar      1 <0>         0.0000
     10 C10        -4.9299   -3.1748    3.8712 C.ar      1 <0>         0.0000
     11 C11        -5.5714    4.4242    2.1732 C.2       1 <0>         0.0000
     12 C12        -6.1063    6.4974    2.5769 C.2       1 <0>         0.0000
     13 C13        -4.7459    1.4208    3.8073 C.2       1 <0>         0.0000
     14 C14        -6.2947    7.6740    3.4638 C.3       1 <0>         0.0000
     15 N1         -6.0315    3.8434   -1.2763 N.1       1 <0>         0.0000
     16 N2         -6.3160    6.3720    1.3091 N.2       1 <0>         0.0000
     17 N3         -5.0710    2.6658    3.6761 N.2       1 <0>         0.0000
     18 N4         -3.5318   -0.6053    0.9771 N.pl3     1 <0>         0.0000
     19 N5         -5.0745    3.1687    2.3929 N.pl3     1 <0>         0.0000
     20 O1         -5.6385    5.3241    3.1782 O.3       1 <0>         0.0000
     21 Br1        -5.6149   -4.3012    5.2668 Br        1 <0>         0.0000
     22 H1         -3.5097   -3.4736    0.7774 H         1 <0>         0.0000
     23 H2         -4.3970   -4.8695    2.6361 H         1 <0>         0.0000
     24 H3         -5.3976   -1.3589    4.9318 H         1 <0>         0.0000
     25 H4         -3.4699    1.5234    1.0487 H         1 <0>         0.0000
     26 H5         -4.7902    1.0721    4.8372 H         1 <0>         0.0000
     27 H6         -7.0192    7.4544    4.2546 H         1 <0>         0.0000
     28 H7         -5.3519    7.9586    3.9420 H         1 <0>         0.0000
     29 H8         -6.6597    8.5083    2.8641 H         1 <0>         0.0000
     30 H9         -3.1291   -0.7376    0.0593 H         1 <0>         0.0000
     31 H10        -5.2438    2.5176    1.6233 H         1 <0>         0.0000
@<TRIPOS>BOND
     1    1    6 1
     2    1   15 3
     3    2    3 ar
     4    2    9 ar
     5    2   22 1
     6    3   10 ar
     7    3   23 1
     8    4    7 ar
     9    4   10 ar
    10    4   24 1
    11    5    8 2
    12    5   18 1
    13    5   25 1
    14    6   11 2
    15    6   16 1
    16    7    8 1
    17    7    9 ar
    18    8   13 1
    19    9   18 1
    20   10   21 1
    21   11   19 1
    22   11   20 1
    23   12   14 1
    24   12   16 2
    25   12   20 1
    26   13   17 2
    27   13   26 1
    28   14   27 1
    29   14   28 1
    30   14   29 1
    31   17   19 1
    32   18   30 1
    33   19   31 1
