@<TRIPOS>MOLECULE
*****
   27    28     0     0     0
SMALL
NO_CHARGES

@<TRIPOS>ATOM
      1 C1          0.3447   -7.1712    2.2875 C.1       1 <0>         0.0000
      2 C2          2.9891   -1.3451    2.0923 C.ar      1 <0>         0.0000
      3 C3          1.4121   -1.7986    0.3154 C.ar      1 <0>         0.0000
      4 C4          1.9446   -0.9859    2.9441 C.ar      1 <0>         0.0000
      5 C5          0.3616   -1.4187    1.1468 C.ar      1 <0>         0.0000
      6 C6          1.0095   -6.3624    1.3185 C.ar      1 <0>         0.0000
      7 C7          2.7389   -1.7842    0.7829 C.ar      1 <0>         0.0000
      8 C8          0.7397   -6.4925   -0.0683 C.ar      1 <0>         0.0000
      9 C9          1.3886   -5.6671   -0.9781 C.ar      1 <0>         0.0000
     10 C10         0.6354   -1.0333    2.4632 C.ar      1 <0>         0.0000
     11 C11         2.3165   -4.7092   -0.4834 C.ar      1 <0>         0.0000
     12 C12         1.9632   -5.3923    1.6779 C.ar      1 <0>         0.0000
     13 C13         3.8919   -2.1776   -0.0456 C.2       1 <0>         0.0000
     14 N1         -0.1988   -7.8320    3.0786 N.1       1 <0>         0.0000
     15 N2          2.5907   -4.6165    0.8219 N.ar      1 <0>         0.0000
     16 N3          4.0197   -3.0241   -1.0095 N.2       1 <0>         0.0000
     17 N4          2.9223   -3.8274   -1.3502 N.pl3     1 <0>         0.0000
     18 Cl1        -0.4090   -7.6708   -0.5961 Cl        1 <0>         0.0000
     19 Cl2         1.0850   -5.7659   -2.6915 Cl        1 <0>         0.0000
     20 Cl3         2.3628   -5.1647    3.3602 Cl        1 <0>         0.0000
     21 Br1        -0.8114   -0.5617    3.6220 Br        1 <0>         0.0000
     22 H1          4.0106   -1.3144    2.4629 H         1 <0>         0.0000
     23 H2          1.1982   -2.1026   -0.7033 H         1 <0>         0.0000
     24 H3          2.1453   -0.6760    3.9643 H         1 <0>         0.0000
     25 H4         -0.6600   -1.4294    0.7812 H         1 <0>         0.0000
     26 H5          4.8255   -1.6551    0.1673 H         1 <0>         0.0000
     27 H6          3.0137   -4.1644   -2.3021 H         1 <0>         0.0000
@<TRIPOS>BOND
     1    1    6 1
     2    1   14 3
     3    2    4 ar
     4    2    7 ar
     5    2   22 1
     6    3    5 ar
     7    3    7 ar
     8    3   23 1
     9    4   10 ar
    10    4   24 1
    11    5   10 ar
    12    5   25 1
    13    6    8 ar
    14    6   12 ar
    15    7   13 1
    16    8    9 ar
    17    8   18 1
    18    9   11 ar
    19    9   19 1
    20   10   21 1
    21   11   15 ar
    22   11   17 1
    23   12   15 ar
    24   12   20 1
    25   13   16 2
    26   13   26 1
    27   16   17 1
    28   17   27 1
