@<TRIPOS>MOLECULE
*****
   44    46     0     0     0
SMALL
NO_CHARGES

@<TRIPOS>ATOM
      1 C1         -2.6693    6.2288   -3.6396 C.2       1 <0>         0.0000
      2 C2         -1.9663    4.0130   -2.9311 C.2       1 <0>         0.0000
      3 C3         -1.7449    5.1397   -3.6944 C.2       1 <0>         0.0000
      4 C4         -3.7873    6.1497   -2.8532 C.2       1 <0>         0.0000
      5 C5         -3.1381    3.8946   -2.0868 C.2       1 <0>         0.0000
      6 C6          1.6455    0.0735    1.6681 C.2       1 <0>         0.0000
      7 C7         -1.0817    2.7997   -3.0787 C.2       1 <0>         0.0000
      8 C8         -0.0882    0.2188   -1.0556 C.3       1 <0>         0.0000
      9 C9         -0.8407    2.1669    0.3583 C.3       1 <0>         0.0000
     10 C10         0.4817    1.2117   -2.0744 C.3       1 <0>         0.0000
     11 C11        -0.2828    3.1084   -0.7172 C.3       1 <0>         0.0000
     12 C12        -0.6583   -0.1689    1.4044 C.3       1 <0>         0.0000
     13 C13        -0.1196    0.8228    0.3544 C.3       1 <0>         0.0000
     14 C14        -0.5563    5.2409   -4.6181 C.3       1 <0>         0.0000
     15 C15        -4.8272    7.2264   -2.7325 C.3       1 <0>         0.0000
     16 C16         0.5775   -1.6901    3.0197 C.3       1 <0>         0.0000
     17 N1         -3.9857    5.0122   -2.1173 N.am      1 <0>         0.0000
     18 N2          0.5684   -0.7451    1.9213 N.am      1 <0>         0.0000
     19 N3         -0.2799    2.4610   -2.0275 N.am      1 <0>         0.0000
     20 O1         -3.4332    2.9284   -1.3678 O.2       1 <0>         0.0000
     21 O2          2.7688   -0.0128    2.1213 O.2       1 <0>         0.0000
     22 O3         -1.0834    2.1799   -4.1476 O.2       1 <0>         0.0000
     23 O4          1.2637    1.0452    0.7802 O.3       1 <0>         0.0000
     24 H1         -2.4939    7.1234   -4.2269 H         1 <0>         0.0000
     25 H2         -1.1108   -0.0441   -1.3478 H         1 <0>         0.0000
     26 H3          0.5104   -0.6987   -1.0462 H         1 <0>         0.0000
     27 H4         -0.7323    2.6298    1.3454 H         1 <0>         0.0000
     28 H5         -1.9043    2.0053    0.1625 H         1 <0>         0.0000
     29 H6          1.5305    1.4271   -1.8422 H         1 <0>         0.0000
     30 H7          0.4188    0.8158   -3.0869 H         1 <0>         0.0000
     31 H8         -0.8676    4.0259   -0.7614 H         1 <0>         0.0000
     32 H9          0.7493    3.3833   -0.4681 H         1 <0>         0.0000
     33 H10        -1.2271    0.3432    2.1960 H         1 <0>         0.0000
     34 H11        -1.3047   -0.9284    0.9530 H         1 <0>         0.0000
     35 H12        -0.3019    6.2850   -4.8193 H         1 <0>         0.0000
     36 H13        -0.7884    4.7510   -5.5695 H         1 <0>         0.0000
     37 H14         0.3212    4.7360   -4.2081 H         1 <0>         0.0000
     38 H15        -5.8093    6.8600   -3.0531 H         1 <0>         0.0000
     39 H16        -4.5641    8.0844   -3.3531 H         1 <0>         0.0000
     40 H17        -4.9207    7.5689   -1.6954 H         1 <0>         0.0000
     41 H18         0.0798   -1.2779    3.9089 H         1 <0>         0.0000
     42 H19         1.6153   -1.9156    3.2686 H         1 <0>         0.0000
     43 H20         0.0674   -2.6140    2.7281 H         1 <0>         0.0000
     44 H21        -4.8091    4.9224   -1.5290 H         1 <0>         0.0000
@<TRIPOS>BOND
     1    1    3 1
     2    1    4 2
     3    1   24 1
     4    2    3 2
     5    2    5 1
     6    2    7 1
     7    3   14 1
     8    4   15 1
     9    4   17 1
    10    5   17 am
    11    5   20 2
    12    6   18 am
    13    6   21 2
    14    6   23 1
    15    7   19 am
    16    7   22 2
    17    8   10 1
    18    8   13 1
    19    8   25 1
    20    8   26 1
    21    9   11 1
    22    9   13 1
    23    9   27 1
    24    9   28 1
    25   10   19 1
    26   10   29 1
    27   10   30 1
    28   11   19 1
    29   11   31 1
    30   11   32 1
    31   12   13 1
    32   12   18 1
    33   12   33 1
    34   12   34 1
    35   13   23 1
    36   14   35 1
    37   14   36 1
    38   14   37 1
    39   15   38 1
    40   15   39 1
    41   15   40 1
    42   16   18 1
    43   16   41 1
    44   16   42 1
    45   16   43 1
    46   17   44 1
