@<TRIPOS>MOLECULE
*****
   37    39     0     0     0
SMALL
NO_CHARGES

@<TRIPOS>ATOM
      1 C1         -1.4957    4.3445    2.6156 C.1       1 <0>         0.0000
      2 C2         -7.0313    2.5330    3.6321 C.ar      1 <0>         0.0000
      3 C3         -5.9610    4.5152    4.5562 C.ar      1 <0>         0.0000
      4 C4         -8.2130    2.8425    4.3112 C.ar      1 <0>         0.0000
      5 C5         -7.1404    4.8335    5.2348 C.ar      1 <0>         0.0000
      6 C6         -5.8994    3.3556    3.7646 C.ar      1 <0>         0.0000
      7 C7         -8.2561    4.0057    5.0823 C.ar      1 <0>         0.0000
      8 C8         -2.4255    2.2091    1.6389 C.2       1 <0>         0.0000
      9 C9         -1.7481    0.5968    0.3264 C.2       1 <0>         0.0000
     10 C10        -2.5674    3.4009    2.4752 C.2       1 <0>         0.0000
     11 C11        -0.8951   -0.2325   -0.5747 C.3       1 <0>         0.0000
     12 C12        -0.3341    0.5462   -1.7826 C.3       1 <0>         0.0000
     13 C13         0.8200    1.5033   -1.4503 C.3       1 <0>         0.0000
     14 C14         0.4883    2.6570   -0.4920 C.3       1 <0>         0.0000
     15 C15         0.0723    2.2234    0.9180 C.3       1 <0>         0.0000
     16 N1         -0.6158    5.1054    2.7069 N.1       1 <0>         0.0000
     17 N2         -3.4501    1.3890    1.4034 N.2       1 <0>         0.0000
     18 N3         -3.0255    0.3825    0.5770 N.2       1 <0>         0.0000
     19 N4         -3.6602    3.7427    3.1293 N.2       1 <0>         0.0000
     20 N5         -1.3119    1.7297    0.9742 N.pl3     1 <0>         0.0000
     21 N6         -4.7416    2.9972    3.0599 N.pl3     1 <0>         0.0000
     22 I1         -9.8666    4.1041    6.7372 I         1 <0>         0.0000
     23 H1         -6.9875    1.6447    3.0062 H         1 <0>         0.0000
     24 H2         -5.0887    5.1536    4.6407 H         1 <0>         0.0000
     25 H3         -9.0767    2.1926    4.2201 H         1 <0>         0.0000
     26 H4         -7.1824    5.7219    5.8561 H         1 <0>         0.0000
     27 H5         -0.0673   -0.6780   -0.0065 H         1 <0>         0.0000
     28 H6         -1.5273   -1.0556   -0.9159 H         1 <0>         0.0000
     29 H7          0.0262   -0.1843   -2.5153 H         1 <0>         0.0000
     30 H8         -1.1525    1.0942   -2.2648 H         1 <0>         0.0000
     31 H9          1.6505    0.9226   -1.0254 H         1 <0>         0.0000
     32 H10         1.1967    1.9312   -2.3863 H         1 <0>         0.0000
     33 H11         1.3778    3.2877   -0.3853 H         1 <0>         0.0000
     34 H12        -0.2981    3.2962   -0.9106 H         1 <0>         0.0000
     35 H13         0.7259    1.4241    1.2846 H         1 <0>         0.0000
     36 H14         0.1647    3.0549    1.6091 H         1 <0>         0.0000
     37 H15        -4.7230    2.1533    2.4613 H         1 <0>         0.0000
@<TRIPOS>BOND
     1    1   10 1
     2    1   16 3
     3    2    4 ar
     4    2    6 ar
     5    2   23 1
     6    3    5 ar
     7    3    6 ar
     8    3   24 1
     9    4    7 ar
    10    4   25 1
    11    5    7 ar
    12    5   26 1
    13    6   21 1
    14    7   22 1
    15    8   10 1
    16    8   17 2
    17    8   20 1
    18    9   11 1
    19    9   18 2
    20    9   20 1
    21   10   19 2
    22   11   12 1
    23   11   27 1
    24   11   28 1
    25   12   13 1
    26   12   29 1
    27   12   30 1
    28   13   14 1
    29   13   31 1
    30   13   32 1
    31   14   15 1
    32   14   33 1
    33   14   34 1
    34   15   20 1
    35   15   35 1
    36   15   36 1
    37   17   18 1
    38   19   21 1
    39   21   37 1
