@<TRIPOS>MOLECULE
*****
   40    42     0     0     0
SMALL
NO_CHARGES

@<TRIPOS>ATOM
      1 C1          2.1122    1.6872    5.2766 C.1       1 <0>         0.0000
      2 C2         -3.6039   -0.6160    8.7673 C.ar      1 <0>         0.0000
      3 C3         -1.8126    0.4274    9.9824 C.ar      1 <0>         0.0000
      4 C4         -2.9098   -0.4257    7.5716 C.ar      1 <0>         0.0000
      5 C5         -1.1024    0.6280    8.8006 C.ar      1 <0>         0.0000
      6 C6         -3.0712   -0.1971    9.9944 C.ar      1 <0>         0.0000
      7 C7         -1.6544    0.1967    7.5857 C.ar      1 <0>         0.0000
      8 C8          0.2738    0.7123    3.8492 C.2       1 <0>         0.0000
      9 C9         -0.0948    0.3224    1.7285 C.2       1 <0>         0.0000
     10 C10         0.8094    1.1025    5.1523 C.2       1 <0>         0.0000
     11 C11         0.0946    0.2371    0.2504 C.3       1 <0>         0.0000
     12 C12         1.3749   -0.5167   -0.1653 C.3       1 <0>         0.0000
     13 C13         2.6777    0.2731    0.0288 C.3       1 <0>         0.0000
     14 C14         3.0265    0.6597    1.4738 C.3       1 <0>         0.0000
     15 C15         2.0243    1.6038    2.1471 C.3       1 <0>         0.0000
     16 C16        -3.8095   -0.4309   11.2919 C.3       1 <0>         0.0000
     17 N1          3.1793    2.1537    5.3565 N.1       1 <0>         0.0000
     18 N2         -0.8799    0.0542    3.7281 N.2       1 <0>         0.0000
     19 N3         -1.1062   -0.1935    2.3985 N.2       1 <0>         0.0000
     20 N4          0.1930    0.9309    6.3086 N.2       1 <0>         0.0000
     21 N5          0.8036    0.9137    2.5874 N.pl3     1 <0>         0.0000
     22 N6         -0.9908    0.3703    6.3586 N.pl3     1 <0>         0.0000
     23 H1         -4.5782   -1.0986    8.7406 H         1 <0>         0.0000
     24 H2         -1.3779    0.7673   10.9201 H         1 <0>         0.0000
     25 H3         -3.3405   -0.7560    6.6291 H         1 <0>         0.0000
     26 H4         -0.1330    1.1134    8.8047 H         1 <0>         0.0000
     27 H5         -0.7886   -0.2750   -0.1385 H         1 <0>         0.0000
     28 H6          0.1013    1.2439   -0.1891 H         1 <0>         0.0000
     29 H7          1.4235   -1.4654    0.3828 H         1 <0>         0.0000
     30 H8          1.2846   -0.7739   -1.2266 H         1 <0>         0.0000
     31 H9          3.5060   -0.3176   -0.3792 H         1 <0>         0.0000
     32 H10         2.6299    1.1887   -0.5771 H         1 <0>         0.0000
     33 H11         3.1418   -0.2343    2.0981 H         1 <0>         0.0000
     34 H12         3.9979    1.1667    1.4739 H         1 <0>         0.0000
     35 H13         2.4777    2.0777    3.0118 H         1 <0>         0.0000
     36 H14         1.7261    2.4031    1.4594 H         1 <0>         0.0000
     37 H15        -3.4217   -1.3153   11.8123 H         1 <0>         0.0000
     38 H16        -3.7014    0.4201   11.9719 H         1 <0>         0.0000
     39 H17        -4.8777   -0.5922   11.1205 H         1 <0>         0.0000
     40 H18        -1.4190    0.0396    5.4772 H         1 <0>         0.0000
@<TRIPOS>BOND
     1    1   10 1
     2    1   17 3
     3    2    4 ar
     4    2    6 ar
     5    2   23 1
     6    3    5 ar
     7    3    6 ar
     8    3   24 1
     9    4    7 ar
    10    4   25 1
    11    5    7 ar
    12    5   26 1
    13    6   16 1
    14    7   22 1
    15    8   10 1
    16    8   18 2
    17    8   21 1
    18    9   11 1
    19    9   19 2
    20    9   21 1
    21   10   20 2
    22   11   12 1
    23   11   27 1
    24   11   28 1
    25   12   13 1
    26   12   29 1
    27   12   30 1
    28   13   14 1
    29   13   31 1
    30   13   32 1
    31   14   15 1
    32   14   33 1
    33   14   34 1
    34   15   21 1
    35   15   35 1
    36   15   36 1
    37   16   37 1
    38   16   38 1
    39   16   39 1
    40   18   19 1
    41   20   22 1
    42   22   40 1
