@<TRIPOS>MOLECULE
*****
   36    39     0     0     0
SMALL
NO_CHARGES

@<TRIPOS>ATOM
      1 C1          1.6292   -6.2566    5.2517 C.2       1 <0>         0.0000
      2 C2          2.2453   -4.5146    4.2641 C.2       1 <0>         0.0000
      3 C3          2.2875   -2.7425    1.5598 C.2       1 <0>         0.0000
      4 C4          1.6846   -1.3851    3.3368 C.2       1 <0>         0.0000
      5 C5          0.1046   -2.6418   -0.8910 C.3       1 <0>         0.0000
      6 C6          0.7456   -1.3232   -1.3558 C.3       1 <0>         0.0000
      7 C7          2.6820   -8.3654    6.2694 C.3       1 <0>         0.0000
      8 C8          2.1711   -7.5375    7.4092 C.3       1 <0>         0.0000
      9 C9         -0.0304   -2.4409    0.6223 C.3       1 <0>         0.0000
     10 C10         1.7899   -1.0099   -0.2631 C.3       1 <0>         0.0000
     11 C11         1.4663   -7.4681    6.0570 C.3       1 <0>         0.0000
     12 C12         1.2839   -1.7121    1.0326 C.3       1 <0>         0.0000
     13 C13         3.1280   -3.3806    3.8248 C.3       1 <0>         0.0000
     14 N1          2.6792   -5.4813    5.1433 N.2       1 <0>         0.0000
     15 N2          1.0133   -4.6615    3.8417 N.2       1 <0>         0.0000
     16 N3          1.1336   -0.8424    2.2005 N.am      1 <0>         0.0000
     17 N4          2.4537   -2.4906    2.9074 N.am      1 <0>         0.0000
     18 O1          2.8283   -3.6304    0.9234 O.2       1 <0>         0.0000
     19 O2          1.5835   -1.0063    4.4907 O.2       1 <0>         0.0000
     20 O3          0.5881   -5.8378    4.5050 O.3       1 <0>         0.0000
     21 H1         -0.8551   -2.8498   -1.3738 H         1 <0>         0.0000
     22 H2          0.7772   -3.4814   -1.0940 H         1 <0>         0.0000
     23 H3          1.1931   -1.3906   -2.3514 H         1 <0>         0.0000
     24 H4         -0.0163   -0.5349   -1.3917 H         1 <0>         0.0000
     25 H5          3.6003   -8.0488    5.7864 H         1 <0>         0.0000
     26 H6          2.4986   -9.4353    6.2750 H         1 <0>         0.0000
     27 H7          1.6296   -8.0278    8.2121 H         1 <0>         0.0000
     28 H8          2.7445   -6.6622    7.6956 H         1 <0>         0.0000
     29 H9         -0.8704   -1.7681    0.8371 H         1 <0>         0.0000
     30 H10        -0.1875   -3.3598    1.1926 H         1 <0>         0.0000
     31 H11         2.7612   -1.4285   -0.5394 H         1 <0>         0.0000
     32 H12         1.9260    0.0595   -0.0862 H         1 <0>         0.0000
     33 H13         0.4943   -7.9400    5.9657 H         1 <0>         0.0000
     34 H14         3.4401   -2.8081    4.7013 H         1 <0>         0.0000
     35 H15         4.0168   -3.7883    3.3365 H         1 <0>         0.0000
     36 H16         0.3284   -0.2401    2.3164 H         1 <0>         0.0000
@<TRIPOS>BOND
     1    1   11 1
     2    1   14 2
     3    1   20 1
     4    2   13 1
     5    2   14 1
     6    2   15 2
     7    3   12 1
     8    3   17 am
     9    3   18 2
    10    4   16 am
    11    4   17 am
    12    4   19 2
    13    5    6 1
    14    5    9 1
    15    5   21 1
    16    5   22 1
    17    6   10 1
    18    6   23 1
    19    6   24 1
    20    7    8 1
    21    7   11 1
    22    7   25 1
    23    7   26 1
    24    8   11 1
    25    8   27 1
    26    8   28 1
    27    9   12 1
    28    9   29 1
    29    9   30 1
    30   10   12 1
    31   10   31 1
    32   10   32 1
    33   11   33 1
    34   12   16 1
    35   13   17 1
    36   13   34 1
    37   13   35 1
    38   15   20 1
    39   16   36 1
