@<TRIPOS>MOLECULE
*****
   35    37     0     0     0
SMALL
NO_CHARGES

@<TRIPOS>ATOM
      1 C1          7.9857   -3.7355    3.2569 C.1       1 <0>         0.0000
      2 C2          7.9826    2.8181    2.1867 C.ar      1 <0>         0.0000
      3 C3          1.5187    0.0736    0.7138 C.ar      1 <0>         0.0000
      4 C4          6.7935    2.0818    2.1294 C.ar      1 <0>         0.0000
      5 C5          9.1902    2.1650    2.4591 C.ar      1 <0>         0.0000
      6 C6          0.2847   -0.5797    0.7736 C.ar      1 <0>         0.0000
      7 C7          2.6594   -0.5808    1.1710 C.ar      1 <0>         0.0000
      8 C8          6.7958    0.7038    2.3359 C.ar      1 <0>         0.0000
      9 C9          9.1985    0.7900    2.6730 C.ar      1 <0>         0.0000
     10 C10         0.2114   -1.8763    1.2867 C.ar      1 <0>         0.0000
     11 C11         2.5911   -1.8885    1.6880 C.ar      1 <0>         0.0000
     12 C12         8.0052    0.0281    2.6143 C.ar      1 <0>         0.0000
     13 C13         1.3449   -2.5600    1.7501 C.ar      1 <0>         0.0000
     14 C14         3.8549   -2.4896    2.1437 C.2       1 <0>         0.0000
     15 C15         5.9101   -2.6182    2.6353 C.2       1 <0>         0.0000
     16 C16         8.1612   -1.3951    2.8723 C.2       1 <0>         0.0000
     17 C17         7.3402   -2.4939    2.9053 C.2       1 <0>         0.0000
     18 C18         1.1840   -3.9607    2.2876 C.3       1 <0>         0.0000
     19 N1          8.5402   -4.7192    3.5439 N.1       1 <0>         0.0000
     20 N2          5.0300   -1.7560    2.2029 N.2       1 <0>         0.0000
     21 N3          4.0080   -3.7465    2.5218 N.2       1 <0>         0.0000
     22 O1          5.3680   -3.8399    2.8487 O.3       1 <0>         0.0000
     23 H1          7.9687    3.8922    2.0212 H         1 <0>         0.0000
     24 H2          1.5918    1.0813    0.3141 H         1 <0>         0.0000
     25 H3          5.8546    2.5878    1.9204 H         1 <0>         0.0000
     26 H4         10.1188    2.7270    2.5072 H         1 <0>         0.0000
     27 H5         -0.6169   -0.0842    0.4228 H         1 <0>         0.0000
     28 H6          3.6245   -0.0886    1.1267 H         1 <0>         0.0000
     29 H7          5.8733    0.1435    2.2797 H         1 <0>         0.0000
     30 H8         10.1390    0.2894    2.8903 H         1 <0>         0.0000
     31 H9         -0.7524   -2.3772    1.3308 H         1 <0>         0.0000
     32 H10         9.1910   -1.6544    3.1080 H         1 <0>         0.0000
     33 H11         1.7405   -4.6862    1.6871 H         1 <0>         0.0000
     34 H12         1.5734   -4.0494    3.3059 H         1 <0>         0.0000
     35 H13         0.1290   -4.2461    2.2902 H         1 <0>         0.0000
@<TRIPOS>BOND
     1    1   17 1
     2    1   19 3
     3    2    5 ar
     4    2    4 ar
     5    2   23 1
     6    3    6 ar
     7    3    7 ar
     8    3   24 1
     9    4    8 ar
    10    4   25 1
    11    5    9 ar
    12    5   26 1
    13    6   10 ar
    14    6   27 1
    15    7   11 ar
    16    7   28 1
    17    8   12 ar
    18    8   29 1
    19    9   12 ar
    20    9   30 1
    21   10   13 ar
    22   10   31 1
    23   11   13 ar
    24   11   14 1
    25   12   16 1
    26   13   18 1
    27   14   20 1
    28   14   21 2
    29   15   17 1
    30   15   20 2
    31   15   22 1
    32   16   17 2
    33   16   32 1
    34   18   33 1
    35   18   34 1
    36   18   35 1
    37   21   22 1
