@<TRIPOS>MOLECULE
*****
   44    46     0     0     0
SMALL
NO_CHARGES

@<TRIPOS>ATOM
      1 C1         -3.1403    0.2067   -4.4247 C.ar      1 <0>         0.0000
      2 C2         -3.7133    1.4734   -4.5617 C.ar      1 <0>         0.0000
      3 C3         -1.8962    0.0994   -3.8016 C.ar      1 <0>         0.0000
      4 C4         -3.0058    2.5732   -4.0665 C.ar      1 <0>         0.0000
      5 C5         -1.2595    1.2604   -3.3373 C.ar      1 <0>         0.0000
      6 C6         -0.1226    2.5146    0.9394 C.3       1 <0>         0.0000
      7 C7         -0.8656    1.3570    1.6228 C.3       1 <0>         0.0000
      8 C8         -1.4130   -1.1467    1.5161 C.3       1 <0>         0.0000
      9 C9         -0.3900    2.5324   -0.5696 C.3       1 <0>         0.0000
     10 C10        -0.6463   -2.4178    1.1049 C.3       1 <0>         0.0000
     11 C11        -0.8721    0.1695   -0.5762 C.3       1 <0>         0.0000
     12 C12         0.8440   -0.4945    1.1409 C.3       1 <0>         0.0000
     13 C13        -0.5913    0.0149    0.9311 C.3       1 <0>         0.0000
     14 C14         2.0762   -4.1941    0.1585 C.3       1 <0>         0.0000
     15 C15         0.0649    1.1804   -2.5987 C.3       1 <0>         0.0000
     16 N1         -1.8102    2.4821   -3.4695 N.ar      1 <0>         0.0000
     17 N2         -0.0439    1.2292   -1.1378 N.3       1 <0>         0.0000
     18 N3          0.7647   -1.9668    0.9218 N.pl3     1 <0>         0.0000
     19 O1          2.7584   -1.7516   -0.6506 O.2       1 <0>         0.0000
     20 O2          0.6329   -2.8070   -1.5586 O.2       1 <0>         0.0000
     21 S1          1.5645   -2.5749   -0.4380 S.o2      1 <0>         0.0000
     22 H1         -3.6507   -0.6782   -4.7973 H         1 <0>         0.0000
     23 H2         -4.6782    1.6121   -5.0412 H         1 <0>         0.0000
     24 H3         -1.4152   -0.8668   -3.6732 H         1 <0>         0.0000
     25 H4         -3.4183    3.5775   -4.1584 H         1 <0>         0.0000
     26 H5         -0.4325    3.4698    1.3790 H         1 <0>         0.0000
     27 H6          0.9560    2.4148    1.1064 H         1 <0>         0.0000
     28 H7         -0.5940    1.2974    2.6843 H         1 <0>         0.0000
     29 H8         -1.9463    1.5506    1.5845 H         1 <0>         0.0000
     30 H9         -2.4443   -1.1596    1.1505 H         1 <0>         0.0000
     31 H10        -1.4470   -1.0590    2.6078 H         1 <0>         0.0000
     32 H11        -1.4452    2.7974   -0.7603 H         1 <0>         0.0000
     33 H12         0.2211    3.2986   -1.0557 H         1 <0>         0.0000
     34 H13        -0.6906   -3.1963    1.8726 H         1 <0>         0.0000
     35 H14        -1.0361   -2.8294    0.1701 H         1 <0>         0.0000
     36 H15        -0.6527   -0.7607   -1.1069 H         1 <0>         0.0000
     37 H16        -1.9523    0.3688   -0.7111 H         1 <0>         0.0000
     38 H17         1.5623   -0.0392    0.4615 H         1 <0>         0.0000
     39 H18         1.1761   -0.3218    2.1714 H         1 <0>         0.0000
     40 H19         2.5758   -4.6924   -0.6742 H         1 <0>         0.0000
     41 H20         2.7571   -4.0481    0.9966 H         1 <0>         0.0000
     42 H21         1.1910   -4.7562    0.4593 H         1 <0>         0.0000
     43 H22         0.5750    0.2472   -2.8595 H         1 <0>         0.0000
     44 H23         0.6984    2.0136   -2.9161 H         1 <0>         0.0000
@<TRIPOS>BOND
     1    1    2 ar
     2    1    3 ar
     3    1   22 1
     4    2    4 ar
     5    2   23 1
     6    3    5 ar
     7    3   24 1
     8    4   16 ar
     9    4   25 1
    10    5   15 1
    11    5   16 ar
    12    6    7 1
    13    6    9 1
    14    6   26 1
    15    6   27 1
    16    7   13 1
    17    7   28 1
    18    7   29 1
    19    8   10 1
    20    8   13 1
    21    8   30 1
    22    8   31 1
    23    9   17 1
    24    9   32 1
    25    9   33 1
    26   10   18 1
    27   10   34 1
    28   10   35 1
    29   11   13 1
    30   11   17 1
    31   11   36 1
    32   11   37 1
    33   12   13 1
    34   12   18 1
    35   12   38 1
    36   12   39 1
    37   14   21 1
    38   14   40 1
    39   14   41 1
    40   14   42 1
    41   15   17 1
    42   15   43 1
    43   15   44 1
    44   18   21 1
    45   19   21 2
    46   20   21 2
