@<TRIPOS>MOLECULE
*****
   34    36     0     0     0
SMALL
NO_CHARGES

@<TRIPOS>ATOM
      1 C1         -0.0615   -5.8622  -13.7435 C.1       1 <0>         0.0000
      2 C2         -4.2266    2.7221   -7.4389 C.ar      1 <0>         0.0000
      3 C3         -4.5760    2.1923   -6.1843 C.ar      1 <0>         0.0000
      4 C4         -3.5922    1.9347   -8.4002 C.ar      1 <0>         0.0000
      5 C5         -4.2956    0.8593   -5.8696 C.ar      1 <0>         0.0000
      6 C6         -1.0644   -5.6333  -11.4230 C.2       1 <0>         0.0000
      7 C7         -0.1922   -5.3004  -12.4494 C.2       1 <0>         0.0000
      8 C8         -0.8039   -4.7457  -10.3426 C.2       1 <0>         0.0000
      9 C9         -3.3021    0.5958   -8.1011 C.ar      1 <0>         0.0000
     10 C10        -3.6604    0.0737   -6.8327 C.ar      1 <0>         0.0000
     11 C11         0.2481   -3.9035  -10.7386 C.2       1 <0>         0.0000
     12 C12        -2.5608   -1.4628   -8.3780 C.2       1 <0>         0.0000
     13 C13        -1.4849   -4.7598   -9.0398 C.2       1 <0>         0.0000
     14 C14         0.9905   -2.8638   -9.9591 C.3       1 <0>         0.0000
     15 C15         1.6959   -3.6449  -12.7765 C.3       1 <0>         0.0000
     16 N1          0.0610   -6.3154  -14.8130 N.1       1 <0>         0.0000
     17 N2         -2.6745   -0.3045   -8.9565 N.2       1 <0>         0.0000
     18 N3         -1.9922   -3.7564   -8.4039 N.2       1 <0>         0.0000
     19 N4          0.6010   -4.2399  -12.0195 N.pl3     1 <0>         0.0000
     20 N5         -1.9457   -2.5293   -8.9879 N.pl3     1 <0>         0.0000
     21 S1         -3.1901   -1.6233   -6.7302 S.3       1 <0>         0.0000
     22 H1         -4.4552    3.7606   -7.6630 H         1 <0>         0.0000
     23 H2         -5.0696    2.8225   -5.4498 H         1 <0>         0.0000
     24 H3         -3.3202    2.3352   -9.3725 H         1 <0>         0.0000
     25 H4         -4.5675    0.4508   -4.9002 H         1 <0>         0.0000
     26 H5         -1.8177   -6.4086  -11.4646 H         1 <0>         0.0000
     27 H6         -1.6119   -5.7161   -8.5364 H         1 <0>         0.0000
     28 H7          2.0730   -3.0138  -10.0297 H         1 <0>         0.0000
     29 H8          0.7726   -1.8472  -10.3089 H         1 <0>         0.0000
     30 H9          0.7094   -2.9165   -8.9069 H         1 <0>         0.0000
     31 H10         1.6396   -2.5556  -12.7227 H         1 <0>         0.0000
     32 H11         2.6637   -3.9752  -12.3860 H         1 <0>         0.0000
     33 H12         1.6155   -3.9498  -13.8199 H         1 <0>         0.0000
     34 H13        -1.7544   -2.4319   -9.9848 H         1 <0>         0.0000
@<TRIPOS>BOND
     1    1    7 1
     2    1   16 3
     3    2    3 ar
     4    2    4 ar
     5    2   22 1
     6    3    5 ar
     7    3   23 1
     8    4    9 ar
     9    4   24 1
    10    5   10 ar
    11    5   25 1
    12    6    7 2
    13    6    8 1
    14    6   26 1
    15    7   19 1
    16    8   11 2
    17    8   13 1
    18    9   10 ar
    19    9   17 1
    20   10   21 1
    21   11   14 1
    22   11   19 1
    23   12   17 2
    24   12   20 1
    25   12   21 1
    26   13   18 2
    27   13   27 1
    28   14   28 1
    29   14   29 1
    30   14   30 1
    31   15   19 1
    32   15   31 1
    33   15   32 1
    34   15   33 1
    35   18   20 1
    36   20   34 1
