@<TRIPOS>MOLECULE
*****
   31    33     0     0     0
SMALL
NO_CHARGES

@<TRIPOS>ATOM
      1 C1          3.1395    1.0487   -0.0681 C.ar      1 <0>         0.0000
      2 C2          2.8541    2.3989    0.2484 C.ar      1 <0>         0.0000
      3 C3          4.4436    0.6258   -0.2383 C.ar      1 <0>         0.0000
      4 C4          9.6128   -2.0862   -0.1451 C.ar      1 <0>         0.0000
      5 C5          3.8781    3.3105    0.4011 C.ar      1 <0>         0.0000
      6 C6         10.9463   -2.4811   -0.0791 C.ar      1 <0>         0.0000
      7 C7          9.3755   -3.2732   -2.2365 C.ar      1 <0>         0.0000
      8 C8          7.4456    3.4230    0.2800 C.ar      1 <0>         0.0000
      9 C9          5.5181    1.5450   -0.0924 C.ar      1 <0>         0.0000
     10 C10         8.8076   -2.4675   -1.2361 C.ar      1 <0>         0.0000
     11 C11         5.2293    2.9077    0.2415 C.ar      1 <0>         0.0000
     12 C12        11.5109   -3.2600   -1.0944 C.ar      1 <0>         0.0000
     13 C13        10.7134   -3.6622   -2.1777 C.ar      1 <0>         0.0000
     14 C14         6.9188    1.2505   -0.2310 C.ar      1 <0>         0.0000
     15 C15         7.3778   -2.1165   -1.3578 C.2       1 <0>         0.0000
     16 N1          6.2092    3.8477    0.4242 N.ar      1 <0>         0.0000
     17 N2          7.8562    2.1740   -0.0402 N.ar      1 <0>         0.0000
     18 N3          6.7615   -1.0303   -1.0272 N.2       1 <0>         0.0000
     19 N4          7.4640    0.0102   -0.5212 N.pl3     1 <0>         0.0000
     20 Cl1        13.1867   -3.7186   -0.9752 Cl        1 <0>         0.0000
     21 Cl2        11.3585   -4.6506   -3.4619 Cl        1 <0>         0.0000
     22 H1          2.3249    0.3383   -0.1801 H         1 <0>         0.0000
     23 H2          1.8218    2.7156    0.3749 H         1 <0>         0.0000
     24 H3          4.6570   -0.4030   -0.4910 H         1 <0>         0.0000
     25 H4          9.1935   -1.5202    0.6803 H         1 <0>         0.0000
     26 H5          3.6893    4.3503    0.6497 H         1 <0>         0.0000
     27 H6         11.5618   -2.1930    0.7671 H         1 <0>         0.0000
     28 H7          8.7729   -3.5969   -3.0801 H         1 <0>         0.0000
     29 H8          8.2422    4.1509    0.4273 H         1 <0>         0.0000
     30 H9          6.7309   -2.8641   -1.8136 H         1 <0>         0.0000
     31 H10         8.4797    0.0459   -0.6181 H         1 <0>         0.0000
@<TRIPOS>BOND
     1    1    2 ar
     2    1    3 ar
     3    1   22 1
     4    2    5 ar
     5    2   23 1
     6    3    9 ar
     7    3   24 1
     8    4    6 ar
     9    4   10 ar
    10    4   25 1
    11    5   11 ar
    12    5   26 1
    13    6   12 ar
    14    6   27 1
    15    7   10 ar
    16    7   13 ar
    17    7   28 1
    18    8   16 ar
    19    8   17 ar
    20    8   29 1
    21    9   11 ar
    22    9   14 ar
    23   10   15 1
    24   11   16 ar
    25   12   13 ar
    26   12   20 1
    27   13   21 1
    28   14   17 ar
    29   14   19 1
    30   15   18 2
    31   15   30 1
    32   18   19 1
    33   19   31 1
