@<TRIPOS>MOLECULE
*****
   30    31     0     0     0
SMALL
NO_CHARGES

@<TRIPOS>ATOM
      1 C1         -1.8239   -4.2707   -1.7142 C.ar      1 <0>         0.0000
      2 C2         -1.2832   -3.0026   -1.5128 C.ar      1 <0>         0.0000
      3 C3         -3.1085   -4.6047   -1.2666 C.ar      1 <0>         0.0000
      4 C4         -3.3399   -2.3436   -0.3833 C.ar      1 <0>         0.0000
      5 C5          3.0278    3.1242   -1.2807 C.2       1 <0>         0.0000
      6 C6          1.3901    1.2908   -1.1992 C.2       1 <0>         0.0000
      7 C7         -2.0482   -2.0310   -0.8415 C.ar      1 <0>         0.0000
      8 C8          1.7563    2.5934   -0.9074 C.2       1 <0>         0.0000
      9 C9         -3.8453   -3.6226   -0.6041 C.ar      1 <0>         0.0000
     10 C10         3.9041    2.3231   -1.9435 C.2       1 <0>         0.0000
     11 C11         2.3385    0.4416   -1.9102 C.2       1 <0>         0.0000
     12 C12         0.0820    0.7977   -0.7968 C.2       1 <0>         0.0000
     13 C13         5.2708    2.7117   -2.4076 C.3       1 <0>         0.0000
     14 N1         -0.3211   -0.4058   -1.0360 N.2       1 <0>         0.0000
     15 N2         -1.5507   -0.7492   -0.6164 N.pl3     1 <0>         0.0000
     16 O1          2.2119   -0.7085   -2.2541 O.2       1 <0>         0.0000
     17 O2          3.5886    1.0514   -2.2470 O.3       1 <0>         0.0000
     18 O3          0.8645    3.3837   -0.2417 O.3       1 <0>         0.0000
     19 Cl1        -5.4647   -4.0002   -0.0248 Cl        1 <0>         0.0000
     20 H1         -1.2331   -5.0213   -2.2327 H         1 <0>         0.0000
     21 H2         -0.2891   -2.7456   -1.8597 H         1 <0>         0.0000
     22 H3         -3.5245   -5.5935   -1.4262 H         1 <0>         0.0000
     23 H4         -3.9412   -1.6026    0.1365 H         1 <0>         0.0000
     24 H5          3.3019    4.1478   -1.0452 H         1 <0>         0.0000
     25 H6         -0.5557    1.5160   -0.2695 H         1 <0>         0.0000
     26 H7          6.0228    2.0581   -1.9533 H         1 <0>         0.0000
     27 H8          5.4926    3.7479   -2.1450 H         1 <0>         0.0000
     28 H9          5.3479    2.5929   -3.4934 H         1 <0>         0.0000
     29 H10        -2.1357   -0.0723   -0.1263 H         1 <0>         0.0000
     30 H11         1.2491    4.2641   -0.1052 H         1 <0>         0.0000
@<TRIPOS>BOND
     1    1    2 ar
     2    1    3 ar
     3    1   20 1
     4    2    7 ar
     5    2   21 1
     6    3    9 ar
     7    3   22 1
     8    4    7 ar
     9    4    9 ar
    10    4   23 1
    11    5    8 1
    12    5   10 2
    13    5   24 1
    14    6    8 2
    15    6   11 1
    16    6   12 1
    17    7   15 1
    18    8   18 1
    19    9   19 1
    20   10   13 1
    21   10   17 1
    22   11   16 2
    23   11   17 1
    24   12   14 2
    25   12   25 1
    26   13   26 1
    27   13   27 1
    28   13   28 1
    29   14   15 1
    30   15   29 1
    31   18   30 1
