@<TRIPOS>MOLECULE
*****
   20    20     0     0     0
SMALL
NO_CHARGES

@<TRIPOS>ATOM
      1 C1          2.0172   -4.9010   -1.7745 C.1       1 <0>         0.0000
      2 C2          1.2232   -1.7966   -0.1895 C.ar      1 <0>         0.0000
      3 C3          0.1747   -1.2166    0.5282 C.ar      1 <0>         0.0000
      4 C4          1.3840   -1.6119    2.6014 C.ar      1 <0>         0.0000
      5 C5          2.3587   -2.2839    0.4638 C.ar      1 <0>         0.0000
      6 C6          2.4154   -2.1730    1.8590 C.ar      1 <0>         0.0000
      7 C7          0.2629   -1.1332    1.9192 C.ar      1 <0>         0.0000
      8 C8          2.5225   -5.1029   -0.4110 C.3       1 <0>         0.0000
      9 C9          3.7066   -4.1804   -0.0774 C.3       1 <0>         0.0000
     10 N1          1.6175   -4.7212   -2.8513 N.1       1 <0>         0.0000
     11 O1          3.3983   -2.7955   -0.2778 O.3       1 <0>         0.0000
     12 F1          3.5135   -2.6303    2.5122 F         1 <0>         0.0000
     13 Cl1        -1.0491   -0.4160    2.8341 Cl        1 <0>         0.0000
     14 H1          1.1773   -1.8834   -1.2708 H         1 <0>         0.0000
     15 H2         -0.7025   -0.8399    0.0130 H         1 <0>         0.0000
     16 H3          1.4701   -1.5444    3.6807 H         1 <0>         0.0000
     17 H4          1.6980   -4.9354    0.2895 H         1 <0>         0.0000
     18 H5          2.8394   -6.1453   -0.2975 H         1 <0>         0.0000
     19 H6          4.5449   -4.3775   -0.7474 H         1 <0>         0.0000
     20 H7          4.0232   -4.3656    0.9535 H         1 <0>         0.0000
@<TRIPOS>BOND
     1    1    8 1
     2    1   10 3
     3    2    3 ar
     4    2    5 ar
     5    2   14 1
     6    3    7 ar
     7    3   15 1
     8    4    6 ar
     9    4    7 ar
    10    4   16 1
    11    5    6 ar
    12    5   11 1
    13    6   12 1
    14    7   13 1
    15    8    9 1
    16    8   17 1
    17    8   18 1
    18    9   11 1
    19    9   19 1
    20    9   20 1
