@<TRIPOS>MOLECULE
*****
   27    28     0     0     0
SMALL
NO_CHARGES

@<TRIPOS>ATOM
      1 C1         -3.9727    1.9356    0.6795 C.1       1 <0>         0.0000
      2 C2          3.0861   -1.2701    2.3227 C.ar      1 <0>         0.0000
      3 C3          1.8249   -0.7470    2.6067 C.ar      1 <0>         0.0000
      4 C4          3.3317   -1.9167    1.1071 C.ar      1 <0>         0.0000
      5 C5          1.0219   -1.5125    0.4496 C.ar      1 <0>         0.0000
      6 C6         -3.1685    1.9752   -0.4904 C.2       1 <0>         0.0000
      7 C7          0.7832   -0.8463    1.6668 C.ar      1 <0>         0.0000
      8 C8          2.2876   -2.0373    0.1881 C.ar      1 <0>         0.0000
      9 C9         -1.9521    1.3813   -0.7345 C.2       1 <0>         0.0000
     10 C10        -2.5923    2.5035   -2.4972 C.2       1 <0>         0.0000
     11 C11        -0.5383   -0.2819    2.0150 C.2       1 <0>         0.0000
     12 C12        -2.4369    3.0164   -3.8830 C.3       1 <0>         0.0000
     13 N1         -4.6567    1.9231    1.6240 N.1       1 <0>         0.0000
     14 N2         -3.5443    2.6840   -1.6475 N.2       1 <0>         0.0000
     15 N3         -1.3911    0.3321    1.2699 N.2       1 <0>         0.0000
     16 N4         -1.1090    0.5424   -0.0493 N.pl3     1 <0>         0.0000
     17 O1         -1.5642    1.6988   -1.9991 O.3       1 <0>         0.0000
     18 Cl1         2.5660   -2.8747   -1.3282 Cl        1 <0>         0.0000
     19 H1          3.8877   -1.1799    3.0503 H         1 <0>         0.0000
     20 H2          1.6426   -0.2506    3.5561 H         1 <0>         0.0000
     21 H3          4.3098   -2.3284    0.8799 H         1 <0>         0.0000
     22 H4          0.2206   -1.6726   -0.2641 H         1 <0>         0.0000
     23 H5         -0.8482   -0.3572    3.0559 H         1 <0>         0.0000
     24 H6         -1.5376    3.6343   -3.9745 H         1 <0>         0.0000
     25 H7         -2.3542    2.1929   -4.5996 H         1 <0>         0.0000
     26 H8         -3.3112    3.6193   -4.1300 H         1 <0>         0.0000
     27 H9         -0.1484    0.4878   -0.3899 H         1 <0>         0.0000
@<TRIPOS>BOND
     1    1    6 1
     2    1   13 3
     3    2    3 ar
     4    2    4 ar
     5    2   19 1
     6    3    7 ar
     7    3   20 1
     8    4    8 ar
     9    4   21 1
    10    5    7 ar
    11    5    8 ar
    12    5   22 1
    13    6    9 2
    14    6   14 1
    15    7   11 1
    16    8   18 1
    17    9   16 1
    18    9   17 1
    19   10   12 1
    20   10   14 2
    21   10   17 1
    22   11   15 2
    23   11   23 1
    24   12   24 1
    25   12   25 1
    26   12   26 1
    27   15   16 1
    28   16   27 1
