@<TRIPOS>MOLECULE
*****
   27    28     0     0     0
SMALL
NO_CHARGES

@<TRIPOS>ATOM
      1 C1         -4.4508    0.4738    0.0457 C.1       1 <0>         0.0000
      2 C2          2.5491   -0.4878    2.3690 C.ar      1 <0>         0.0000
      3 C3          1.1791   -0.2687    2.2089 C.ar      1 <0>         0.0000
      4 C4          3.0294   -1.7230    2.8111 C.ar      1 <0>         0.0000
      5 C5          0.7403   -2.5300    2.9702 C.ar      1 <0>         0.0000
      6 C6         -3.3522    0.7574   -0.8084 C.2       1 <0>         0.0000
      7 C7          0.2598   -1.2949    2.4995 C.ar      1 <0>         0.0000
      8 C8          2.1112   -2.7331    3.1111 C.ar      1 <0>         0.0000
      9 C9         -2.0076    0.5591   -0.5967 C.2       1 <0>         0.0000
     10 C10        -2.3215    1.4485   -2.5686 C.2       1 <0>         0.0000
     11 C11        -1.2041   -1.1209    2.3782 C.2       1 <0>         0.0000
     12 C12        -1.8714    1.9813   -3.8806 C.3       1 <0>         0.0000
     13 N1         -5.3747    0.2567    0.7235 N.1       1 <0>         0.0000
     14 N2         -3.5098    1.3304   -2.0848 N.2       1 <0>         0.0000
     15 N3         -1.8819   -0.5005    1.4755 N.2       1 <0>         0.0000
     16 N4         -1.2296    0.1001    0.4365 N.pl3     1 <0>         0.0000
     17 O1         -1.3308    0.9895   -1.6957 O.3       1 <0>         0.0000
     18 Cl1         2.6951   -4.2837    3.6843 Cl        1 <0>         0.0000
     19 H1          3.2525    0.3124    2.1563 H         1 <0>         0.0000
     20 H2          0.8247    0.7135    1.9119 H         1 <0>         0.0000
     21 H3          4.0934   -1.8984    2.9333 H         1 <0>         0.0000
     22 H4          0.0457   -3.3278    3.2165 H         1 <0>         0.0000
     23 H5         -1.8251   -1.5986    3.1341 H         1 <0>         0.0000
     24 H6         -1.2003    2.8362   -3.7484 H         1 <0>         0.0000
     25 H7         -1.3348    1.2168   -4.4519 H         1 <0>         0.0000
     26 H8         -2.7483    2.2992   -4.4452 H         1 <0>         0.0000
     27 H9         -0.2735   -0.1685    0.2015 H         1 <0>         0.0000
@<TRIPOS>BOND
     1    1    6 1
     2    1   13 3
     3    2    3 ar
     4    2    4 ar
     5    2   19 1
     6    3    7 ar
     7    3   20 1
     8    4    8 ar
     9    4   21 1
    10    5    7 ar
    11    5    8 ar
    12    5   22 1
    13    6    9 2
    14    6   14 1
    15    7   11 1
    16    8   18 1
    17    9   16 1
    18    9   17 1
    19   10   12 1
    20   10   14 2
    21   10   17 1
    22   11   15 2
    23   11   23 1
    24   12   24 1
    25   12   25 1
    26   12   26 1
    27   15   16 1
    28   16   27 1
