@<TRIPOS>MOLECULE
*****
   32    33     0     0     0
SMALL
NO_CHARGES

@<TRIPOS>ATOM
      1 C1          2.7334   -1.5818   -2.2638 C.1       1 <0>         0.0000
      2 C2          1.3075    0.4156   -2.0771 C.ar      1 <0>         0.0000
      3 C3          1.1820   -1.3126   -0.3664 C.ar      1 <0>         0.0000
      4 C4          0.3393    1.1462   -1.3935 C.ar      1 <0>         0.0000
      5 C5          0.2174   -0.5770    0.3077 C.ar      1 <0>         0.0000
      6 C6         -4.6444    5.2484    1.8198 C.ar      1 <0>         0.0000
      7 C7          1.7359   -0.8213   -1.5665 C.ar      1 <0>         0.0000
      8 C8         -0.2202    0.6656   -0.1952 C.ar      1 <0>         0.0000
      9 C9         -3.7000    4.8518    0.8728 C.ar      1 <0>         0.0000
     10 C10        -4.8817    4.3922    2.9085 C.ar      1 <0>         0.0000
     11 C11        -3.3323    2.9439    2.0640 C.ar      1 <0>         0.0000
     12 C12        -1.2365    1.4767    0.4829 C.2       1 <0>         0.0000
     13 C13        -3.3663    5.6889   -0.3320 C.3       1 <0>         0.0000
     14 C14        -5.8750    4.7279    3.9883 C.3       1 <0>         0.0000
     15 N1          3.5440   -2.2001   -2.8301 N.1       1 <0>         0.0000
     16 N2         -3.0337    3.6873    0.9918 N.ar      1 <0>         0.0000
     17 N3         -4.2249    3.2359    3.0325 N.ar      1 <0>         0.0000
     18 N4         -1.7558    1.0418    1.5850 N.2       1 <0>         0.0000
     19 N5         -2.6983    1.7288    2.2719 N.pl3     1 <0>         0.0000
     20 H1          1.7348    0.7927   -3.0012 H         1 <0>         0.0000
     21 H2          1.5174   -2.2693    0.0229 H         1 <0>         0.0000
     22 H3          0.0098    2.1031   -1.7912 H         1 <0>         0.0000
     23 H4         -0.2134   -0.9485    1.2316 H         1 <0>         0.0000
     24 H5         -5.1791    6.1870    1.7196 H         1 <0>         0.0000
     25 H6         -1.5215    2.4237    0.0328 H         1 <0>         0.0000
     26 H7         -2.3004    5.9384   -0.3290 H         1 <0>         0.0000
     27 H8         -3.5637    5.1212   -1.2469 H         1 <0>         0.0000
     28 H9         -3.9464    6.6141   -0.3571 H         1 <0>         0.0000
     29 H10        -6.6037    3.9182    4.0907 H         1 <0>         0.0000
     30 H11        -5.3607    4.8234    4.9500 H         1 <0>         0.0000
     31 H12        -6.4040    5.6601    3.7773 H         1 <0>         0.0000
     32 H13        -3.0024    1.2541    3.1128 H         1 <0>         0.0000
@<TRIPOS>BOND
     1    1    7 1
     2    1   15 3
     3    2    4 ar
     4    2    7 ar
     5    2   20 1
     6    3    5 ar
     7    3    7 ar
     8    3   21 1
     9    4    8 ar
    10    4   22 1
    11    5    8 ar
    12    5   23 1
    13    6   10 ar
    14    6    9 ar
    15    6   24 1
    16    8   12 1
    17    9   13 1
    18    9   16 ar
    19   10   14 1
    20   10   17 ar
    21   11   17 ar
    22   11   16 ar
    23   11   19 1
    24   12   18 2
    25   12   25 1
    26   13   26 1
    27   13   27 1
    28   13   28 1
    29   14   29 1
    30   14   30 1
    31   14   31 1
    32   18   19 1
    33   19   32 1
