@<TRIPOS>MOLECULE
*****
   34    36     0     0     0
SMALL
NO_CHARGES

@<TRIPOS>ATOM
      1 C1         -2.5326   -4.0865  -12.5156 C.1       1 <0>         0.0000
      2 C2         -4.2812    0.2256   -9.3345 C.ar      1 <0>         0.0000
      3 C3         -3.7109    1.3972   -8.8078 C.ar      1 <0>         0.0000
      4 C4         -3.7073   -1.0234   -9.0930 C.ar      1 <0>         0.0000
      5 C5         -2.5482    1.3418   -8.0320 C.ar      1 <0>         0.0000
      6 C6         -1.6403   -4.8401  -10.2638 C.2       1 <0>         0.0000
      7 C7         -1.6575   -4.0517  -11.4037 C.2       1 <0>         0.0000
      8 C8         -0.5932   -4.3594   -9.4326 C.2       1 <0>         0.0000
      9 C9         -2.5446   -1.0989   -8.3145 C.ar      1 <0>         0.0000
     10 C10        -1.9726    0.0921   -7.7993 C.ar      1 <0>         0.0000
     11 C11         0.0363   -3.3093  -10.1166 C.2       1 <0>         0.0000
     12 C12        -0.8139   -2.0258   -7.2942 C.2       1 <0>         0.0000
     13 C13        -0.3276   -4.8873   -8.0972 C.2       1 <0>         0.0000
     14 C14         1.2379   -2.4984   -9.7572 C.3       1 <0>         0.0000
     15 C15        -0.2673   -2.1413  -12.3167 C.3       1 <0>         0.0000
     16 N1         -3.2508   -4.1012  -13.4373 N.1       1 <0>         0.0000
     17 N2         -1.8723   -2.2722   -7.9952 N.2       1 <0>         0.0000
     18 N3          0.0055   -4.3314   -6.9787 N.2       1 <0>         0.0000
     19 N4         -0.6225   -3.1227  -11.3006 N.pl3     1 <0>         0.0000
     20 N5          0.1362   -2.9434   -6.8837 N.pl3     1 <0>         0.0000
     21 S1         -0.5043   -0.2985   -6.9071 S.3       1 <0>         0.0000
     22 H1         -5.1819    0.2933   -9.9383 H         1 <0>         0.0000
     23 H2         -4.1741    2.3598   -9.0057 H         1 <0>         0.0000
     24 H3         -4.1374   -1.9359   -9.4949 H         1 <0>         0.0000
     25 H4         -2.1076    2.2496   -7.6299 H         1 <0>         0.0000
     26 H5         -2.3437   -5.6292  -10.0337 H         1 <0>         0.0000
     27 H6         -0.4382   -5.9674   -7.9911 H         1 <0>         0.0000
     28 H7          1.9378   -2.4301  -10.5969 H         1 <0>         0.0000
     29 H8          0.9642   -1.4770   -9.4663 H         1 <0>         0.0000
     30 H9          1.7580   -2.9534   -8.9153 H         1 <0>         0.0000
     31 H10        -0.1671   -1.1524  -11.8635 H         1 <0>         0.0000
     32 H11         0.6728   -2.4106  -12.8087 H         1 <0>         0.0000
     33 H12        -1.0573   -2.1041  -13.0667 H         1 <0>         0.0000
     34 H13         0.5690   -2.7128   -5.9967 H         1 <0>         0.0000
@<TRIPOS>BOND
     1    1    7 1
     2    1   16 3
     3    2    3 ar
     4    2    4 ar
     5    2   22 1
     6    3    5 ar
     7    3   23 1
     8    4    9 ar
     9    4   24 1
    10    5   10 ar
    11    5   25 1
    12    6    7 2
    13    6    8 1
    14    6   26 1
    15    7   19 1
    16    8   11 2
    17    8   13 1
    18    9   10 ar
    19    9   17 1
    20   10   21 1
    21   11   14 1
    22   11   19 1
    23   12   17 2
    24   12   20 1
    25   12   21 1
    26   13   18 2
    27   13   27 1
    28   14   28 1
    29   14   29 1
    30   14   30 1
    31   15   19 1
    32   15   31 1
    33   15   32 1
    34   15   33 1
    35   18   20 1
    36   20   34 1
