@<TRIPOS>MOLECULE
*****
   29    30     0     0     0
SMALL
NO_CHARGES

@<TRIPOS>ATOM
      1 C1          1.4699   -3.9196    1.0696 C.1       1 <0>         0.0000
      2 C2         -4.8063    2.6505    1.9531 C.2       1 <0>         0.0000
      3 C3          0.2287   -4.1155    1.7206 C.2       1 <0>         0.0000
      4 C4         -3.0575    0.9495    1.7837 C.2       1 <0>         0.0000
      5 C5         -4.2235    0.5611    2.4376 C.2       1 <0>         0.0000
      6 C6         -0.7304   -3.1449    1.9339 C.2       1 <0>         0.0000
      7 C7         -1.4034   -5.0518    2.7484 C.2       1 <0>         0.0000
      8 C8         -1.8484    0.1769    1.5139 C.2       1 <0>         0.0000
      9 C9         -4.5066   -0.7816    3.0423 C.3       1 <0>         0.0000
     10 C10        -2.3800   -5.9319    3.4397 C.3       1 <0>         0.0000
     11 C11        -0.6413    0.8220    0.8684 C.3       1 <0>         0.0000
     12 N1          2.4698   -3.6664    0.5202 N.1       1 <0>         0.0000
     13 N2         -5.1909    1.5394    2.5189 N.2       1 <0>         0.0000
     14 N3         -0.2409   -5.3232    2.2590 N.2       1 <0>         0.0000
     15 N4         -1.8710   -1.0764    1.8572 N.2       1 <0>         0.0000
     16 N5         -0.7530   -1.8187    1.6279 N.pl3     1 <0>         0.0000
     17 O1         -1.7730   -3.7109    2.5820 O.3       1 <0>         0.0000
     18 S1         -3.2156    2.6150    1.2621 S.3       1 <0>         0.0000
     19 H1         -5.4132    3.5483    1.9030 H         1 <0>         0.0000
     20 H2         -3.7313   -1.0648    3.7598 H         1 <0>         0.0000
     21 H3         -5.4780   -0.7485    3.5392 H         1 <0>         0.0000
     22 H4         -4.5112   -1.5653    2.2786 H         1 <0>         0.0000
     23 H5         -2.5868   -5.5684    4.4515 H         1 <0>         0.0000
     24 H6         -3.3290   -5.9667    2.8949 H         1 <0>         0.0000
     25 H7         -1.9629   -6.9377    3.4981 H         1 <0>         0.0000
     26 H8          0.2422    0.7180    1.5103 H         1 <0>         0.0000
     27 H9         -0.4145    0.3539   -0.0977 H         1 <0>         0.0000
     28 H10        -0.7807    1.8868    0.6856 H         1 <0>         0.0000
     29 H11         0.0512   -1.4584    1.1195 H         1 <0>         0.0000
@<TRIPOS>BOND
     1    1    3 1
     2    1   12 3
     3    2   13 2
     4    2   18 1
     5    2   19 1
     6    3    6 2
     7    3   14 1
     8    4    5 2
     9    4    8 1
    10    4   18 1
    11    5    9 1
    12    5   13 1
    13    6   16 1
    14    6   17 1
    15    7   10 1
    16    7   14 2
    17    7   17 1
    18    8   11 1
    19    8   15 2
    20    9   20 1
    21    9   21 1
    22    9   22 1
    23   10   23 1
    24   10   24 1
    25   10   25 1
    26   11   26 1
    27   11   27 1
    28   11   28 1
    29   15   16 1
    30   16   29 1
