@<TRIPOS>MOLECULE
*****
   20    21     0     0     0
SMALL
NO_CHARGES

@<TRIPOS>ATOM
      1 C1          1.7960   -0.9825   -0.0531 C.ar      1 <0>         0.0000
      2 C2          0.7465   -0.4058    0.6701 C.ar      1 <0>         0.0000
      3 C3          2.8278   -1.6361    0.6192 C.ar      1 <0>         0.0000
      4 C4          0.7260   -0.4875    2.0646 C.ar      1 <0>         0.0000
      5 C5          7.1088   -1.9612    1.1615 C.2       1 <0>         0.0000
      6 C6          7.6516   -2.8919    2.0175 C.2       1 <0>         0.0000
      7 C7          2.8230   -1.7500    2.0213 C.ar      1 <0>         0.0000
      8 C8          1.7529   -1.1620    2.7156 C.ar      1 <0>         0.0000
      9 C9          5.2706   -2.4959    2.2668 C.2       1 <0>         0.0000
     10 C10         3.8625   -2.5295    2.7555 C.2       1 <0>         0.0000
     11 N1          5.7654   -1.7454    1.3106 N.2       1 <0>         0.0000
     12 O1          3.6002   -3.2018    3.7479 O.2       1 <0>         0.0000
     13 F1          1.7178   -1.2055    4.0629 F         1 <0>         0.0000
     14 S1          6.4424   -3.5308    3.0637 S.3       1 <0>         0.0000
     15 H1          1.8129   -0.9190   -1.1371 H         1 <0>         0.0000
     16 H2         -0.0561    0.1121    0.1521 H         1 <0>         0.0000
     17 H3          3.6463   -2.0717    0.0594 H         1 <0>         0.0000
     18 H4         -0.0683   -0.0401    2.6542 H         1 <0>         0.0000
     19 H5          7.6603   -1.4087    0.4084 H         1 <0>         0.0000
     20 H6          8.6825   -3.2169    2.0790 H         1 <0>         0.0000
@<TRIPOS>BOND
     1    1    2 ar
     2    1    3 ar
     3    1   15 1
     4    2    4 ar
     5    2   16 1
     6    3    7 ar
     7    3   17 1
     8    4    8 ar
     9    4   18 1
    10    5    6 2
    11    5   11 1
    12    5   19 1
    13    6   14 1
    14    6   20 1
    15    7    8 ar
    16    7   10 1
    17    8   13 1
    18    9   10 1
    19    9   11 2
    20    9   14 1
    21   10   12 2
