@<TRIPOS>MOLECULE
*****
   36    38     0     0     0
SMALL
NO_CHARGES

@<TRIPOS>ATOM
      1 C1          8.4698   -2.0985    1.2475 C.1       1 <0>         0.0000
      2 C2          6.1508    0.5764    2.4262 C.ar      1 <0>         0.0000
      3 C3          7.3063   -0.0466    1.9507 C.ar      1 <0>         0.0000
      4 C4          5.0065   -0.1697    2.7100 C.ar      1 <0>         0.0000
      5 C5          6.6806   -6.8100    7.4033 C.ar      1 <0>         0.0000
      6 C6          6.8018   -7.8091    5.1900 C.ar      1 <0>         0.0000
      7 C7          7.1903   -7.9806    7.9643 C.ar      1 <0>         0.0000
      8 C8          7.2985   -8.9892    5.7465 C.ar      1 <0>         0.0000
      9 C9          6.1571   -2.1984    2.0565 C.ar      1 <0>         0.0000
     10 C10         7.2977   -1.4389    1.7557 C.ar      1 <0>         0.0000
     11 C11         4.8368   -3.9458    4.3706 C.2       1 <0>         0.0000
     12 C12         5.0086   -1.5673    2.5578 C.ar      1 <0>         0.0000
     13 C13         6.4807   -6.7317    6.0209 C.ar      1 <0>         0.0000
     14 C14         7.4819   -9.0523    7.1244 C.ar      1 <0>         0.0000
     15 C15         5.8342   -3.3738    5.2292 C.2       1 <0>         0.0000
     16 C16         4.9584   -5.3161    4.5921 C.2       1 <0>         0.0000
     17 C17         3.7947   -3.3404    3.5332 C.2       1 <0>         0.0000
     18 C18         6.1473   -1.9344    5.4962 C.3       1 <0>         0.0000
     19 N1          9.4199   -2.6360    0.8391 N.1       1 <0>         0.0000
     20 N2          6.4970   -4.3211    5.8870 N.2       1 <0>         0.0000
     21 N3          3.8253   -2.2797    2.8113 N.2       1 <0>         0.0000
     22 N4          5.9743   -5.5182    5.4728 N.pl3     1 <0>         0.0000
     23 F1          7.9690  -10.1942    7.6675 F         1 <0>         0.0000
     24 Cl1         3.9947   -6.5893    3.9441 Cl        1 <0>         0.0000
     25 H1          6.1396    1.6533    2.5684 H         1 <0>         0.0000
     26 H2          8.1978    0.5271    1.7194 H         1 <0>         0.0000
     27 H3          4.1008    0.3131    3.0654 H         1 <0>         0.0000
     28 H4          6.4448   -5.9529    8.0244 H         1 <0>         0.0000
     29 H5          6.6802   -7.7276    4.1155 H         1 <0>         0.0000
     30 H6          7.3569   -8.0710    9.0330 H         1 <0>         0.0000
     31 H7          7.5567   -9.8416    5.1265 H         1 <0>         0.0000
     32 H8          6.1638   -3.2713    1.8972 H         1 <0>         0.0000
     33 H9          2.8412   -3.8755    3.5364 H         1 <0>         0.0000
     34 H10         5.2342   -1.3357    5.5429 H         1 <0>         0.0000
     35 H11         6.6777   -1.8522    6.4475 H         1 <0>         0.0000
     36 H12         6.7791   -1.5107    4.7109 H         1 <0>         0.0000
@<TRIPOS>BOND
     1    1   10 1
     2    1   19 3
     3    2    3 ar
     4    2    4 ar
     5    2   25 1
     6    3   10 ar
     7    3   26 1
     8    4   12 ar
     9    4   27 1
    10    5    7 ar
    11    5   13 ar
    12    5   28 1
    13    6    8 ar
    14    6   13 ar
    15    6   29 1
    16    7   14 ar
    17    7   30 1
    18    8   14 ar
    19    8   31 1
    20    9   10 ar
    21    9   12 ar
    22    9   32 1
    23   11   15 1
    24   11   16 2
    25   11   17 1
    26   12   21 1
    27   13   22 1
    28   14   23 1
    29   15   18 1
    30   15   20 2
    31   16   22 1
    32   16   24 1
    33   17   21 2
    34   17   33 1
    35   18   34 1
    36   18   35 1
    37   18   36 1
    38   20   22 1
