@<TRIPOS>MOLECULE
*****
   20    21     0     0     0
SMALL
NO_CHARGES

@<TRIPOS>ATOM
      1 C1          1.8123   -1.1853   -0.1328 C.ar      1 <0>         0.0000
      2 C2          0.8382   -0.4299    0.5314 C.ar      1 <0>         0.0000
      3 C3          2.8324   -1.7932    0.5968 C.ar      1 <0>         0.0000
      4 C4          0.8797   -0.2915    1.9210 C.ar      1 <0>         0.0000
      5 C5          5.5478    0.1505    4.9278 C.2       1 <0>         0.0000
      6 C6          6.2759   -0.8568    5.5202 C.2       1 <0>         0.0000
      7 C7          2.9150   -1.6394    1.9907 C.ar      1 <0>         0.0000
      8 C8          1.9151   -0.8955    2.6260 C.ar      1 <0>         0.0000
      9 C9          4.7750   -1.5451    3.7454 C.2       1 <0>         0.0000
     10 C10         4.0421   -2.3102    2.7073 C.2       1 <0>         0.0000
     11 N1          4.7038   -0.2486    3.9288 N.2       1 <0>         0.0000
     12 O1          4.4042   -3.4448    2.4085 O.2       1 <0>         0.0000
     13 F1          1.8997   -0.8039    3.9758 F         1 <0>         0.0000
     14 S1          5.9085   -2.3747    4.7940 S.3       1 <0>         0.0000
     15 H1          1.7729   -1.3007   -1.2120 H         1 <0>         0.0000
     16 H2          0.0370    0.0435   -0.0294 H         1 <0>         0.0000
     17 H3          3.5907   -2.3920    0.1012 H         1 <0>         0.0000
     18 H4          0.1215    0.2635    2.4647 H         1 <0>         0.0000
     19 H5          5.6026    1.1998    5.1970 H         1 <0>         0.0000
     20 H6          6.9909   -0.7752    6.3291 H         1 <0>         0.0000
@<TRIPOS>BOND
     1    1    2 ar
     2    1    3 ar
     3    1   15 1
     4    2    4 ar
     5    2   16 1
     6    3    7 ar
     7    3   17 1
     8    4    8 ar
     9    4   18 1
    10    5    6 2
    11    5   11 1
    12    5   19 1
    13    6   14 1
    14    6   20 1
    15    7    8 ar
    16    7   10 1
    17    8   13 1
    18    9   10 1
    19    9   11 2
    20    9   14 1
    21   10   12 2
