@<TRIPOS>MOLECULE
*****
   32    33     0     0     0
SMALL
NO_CHARGES

@<TRIPOS>ATOM
      1 C1          4.2671   -3.1756   -4.5305 C.ar      1 <0>         0.0000
      2 C2          4.2812   -2.0781   -3.6746 C.ar      1 <0>         0.0000
      3 C3          3.1492   -3.4364   -5.3416 C.ar      1 <0>         0.0000
      4 C4          1.6423    0.4159   -3.2782 C.2       1 <0>         0.0000
      5 C5          3.1853   -1.2054   -3.6896 C.ar      1 <0>         0.0000
      6 C6          2.0930   -1.4036   -4.5844 C.ar      1 <0>         0.0000
      7 C7          2.8541   -0.0554   -2.8784 C.2       1 <0>         0.0000
      8 C8          2.0495   -2.5767   -5.3504 C.ar      1 <0>         0.0000
      9 C9          0.2369    0.2219   -5.2351 C.2       1 <0>         0.0000
     10 C10        -0.2916    1.8880   -7.6878 C.3       1 <0>         0.0000
     11 C11         0.2520   -0.2883   -8.8299 C.3       1 <0>         0.0000
     12 C12        -1.8167   -0.1281   -7.3929 C.3       1 <0>         0.0000
     13 C13        -0.3833    0.3628   -7.6014 C.3       1 <0>         0.0000
     14 N1          1.1672   -0.3752   -4.3513 N.am      1 <0>         0.0000
     15 O1         -0.6117    0.9929   -4.8299 O.2       1 <0>         0.0000
     16 O2          3.6357    0.5044   -1.9010 O.3       1 <0>         0.0000
     17 O3          0.4861   -0.1247   -6.4967 O.3       1 <0>         0.0000
     18 Br1         0.4782   -3.1835   -6.2653 Br        1 <0>         0.0000
     19 H1          5.1048   -3.8667   -4.5500 H         1 <0>         0.0000
     20 H2          5.1244   -1.9072   -3.0096 H         1 <0>         0.0000
     21 H3          3.1166   -4.3386   -5.9431 H         1 <0>         0.0000
     22 H4          1.0716    1.2711   -2.9505 H         1 <0>         0.0000
     23 H5         -0.7517    2.3677   -6.8238 H         1 <0>         0.0000
     24 H6          0.7543    2.2029   -7.7562 H         1 <0>         0.0000
     25 H7         -0.8074    2.2253   -8.5927 H         1 <0>         0.0000
     26 H8          0.2275   -1.3773   -8.7486 H         1 <0>         0.0000
     27 H9          1.2939    0.0271   -8.9359 H         1 <0>         0.0000
     28 H10        -0.2950    0.0107   -9.7289 H         1 <0>         0.0000
     29 H11        -1.8348   -1.2145   -7.2723 H         1 <0>         0.0000
     30 H12        -2.2752    0.3350   -6.5184 H         1 <0>         0.0000
     31 H13        -2.4124    0.1285   -8.2748 H         1 <0>         0.0000
     32 H14         4.1425   -0.1984   -1.4643 H         1 <0>         0.0000
@<TRIPOS>BOND
     1    1    2 ar
     2    1    3 ar
     3    1   19 1
     4    2    5 ar
     5    2   20 1
     6    3    8 ar
     7    3   21 1
     8    4    7 2
     9    4   14 1
    10    4   22 1
    11    5    6 ar
    12    5    7 1
    13    6    8 ar
    14    6   14 1
    15    7   16 1
    16    8   18 1
    17    9   14 am
    18    9   15 2
    19    9   17 1
    20   10   13 1
    21   10   23 1
    22   10   24 1
    23   10   25 1
    24   11   13 1
    25   11   26 1
    26   11   27 1
    27   11   28 1
    28   12   13 1
    29   12   29 1
    30   12   30 1
    31   12   31 1
    32   13   17 1
    33   16   32 1
