@<TRIPOS>MOLECULE
*****
   15    15     0     0     0
SMALL
NO_CHARGES

@<TRIPOS>ATOM
      1 C1          0.2482   -0.3859    0.9412 C.ar      1 <0>         0.0000
      2 C2          1.6342   -0.6374    2.9062 C.ar      1 <0>         0.0000
      3 C3         -0.6372   -1.2908    1.5271 C.ar      1 <0>         0.0000
      4 C4          1.4023   -0.0649    1.6610 C.ar      1 <0>         0.0000
      5 C5          0.6632   -1.5343    3.3846 C.ar      1 <0>         0.0000
      6 C6         -0.4624   -3.3346    5.2389 C.3       1 <0>         0.0000
      7 N1         -0.4435   -1.8601    2.7256 N.ar      1 <0>         0.0000
      8 F1         -0.5679   -4.3114    4.3248 F         1 <0>         0.0000
      9 F2         -1.6270   -2.6694    5.2808 F         1 <0>         0.0000
     10 F3         -0.2746   -3.9171    6.4474 F         1 <0>         0.0000
     11 S1          0.9925   -2.2532    4.9930 S.3       1 <0>         0.0000
     12 Br1         2.6699    1.1648    0.9358 Br        1 <0>         0.0000
     13 H1          0.0433    0.0462   -0.0318 H         1 <0>         0.0000
     14 H2          2.5238   -0.4024    3.4816 H         1 <0>         0.0000
     15 H3         -1.5505   -1.5743    1.0080 H         1 <0>         0.0000
@<TRIPOS>BOND
     1    1    3 ar
     2    1    4 ar
     3    1   13 1
     4    2    4 ar
     5    2    5 ar
     6    2   14 1
     7    3    7 ar
     8    3   15 1
     9    4   12 1
    10    5    7 ar
    11    5   11 1
    12    6    8 1
    13    6    9 1
    14    6   10 1
    15    6   11 1
