@<TRIPOS>MOLECULE
*****
   36    38     0     0     0
SMALL
NO_CHARGES

@<TRIPOS>ATOM
      1 C1          2.7891    0.2680    2.1153 C.ar      1 <0>         0.0000
      2 C2          1.4059    0.2258    2.1545 C.ar      1 <0>         0.0000
      3 C3          3.3991   -0.2553    1.0015 C.ar      1 <0>         0.0000
      4 C4          0.6640   -0.3291    1.0939 C.ar      1 <0>         0.0000
      5 C5          1.3625   -0.8767   -0.0023 C.ar      1 <0>         0.0000
      6 C6         -2.0059    1.4106   -0.1258 C.2       1 <0>         0.0000
      7 C7         -0.8409   -0.3049    1.2272 C.3       1 <0>         0.0000
      8 C8         -3.4042    3.4627   -3.0245 C.3       1 <0>         0.0000
      9 C9         -2.3670    4.1067   -2.1537 C.3       1 <0>         0.0000
     10 C10        -0.6232   -2.0392   -0.9852 C.3       1 <0>         0.0000
     11 C11        -1.6798   -0.9405   -1.0363 C.3       1 <0>         0.0000
     12 C12        -3.2119    2.9870   -1.6105 C.3       1 <0>         0.0000
     13 C13         1.5253   -1.8443   -2.2454 C.3       1 <0>         0.0000
     14 N1          2.7276   -0.8095   -0.0310 N.ar      1 <0>         0.0000
     15 N2          0.7199   -1.4780   -1.0862 N.pl3     1 <0>         0.0000
     16 N3         -1.5194    0.0927   -0.0074 N.am      1 <0>         0.0000
     17 N4         -2.6468    1.6960   -1.3284 N.am      1 <0>         0.0000
     18 O1         -1.8875    2.2549    0.7679 O.2       1 <0>         0.0000
     19 H1          3.3627    0.7017    2.9249 H         1 <0>         0.0000
     20 H2          0.8950    0.6429    3.0207 H         1 <0>         0.0000
     21 H3          4.4787   -0.2496    0.9000 H         1 <0>         0.0000
     22 H4         -1.2035   -1.2973    1.5355 H         1 <0>         0.0000
     23 H5         -1.1499    0.3710    2.0367 H         1 <0>         0.0000
     24 H6         -4.2991    4.0303   -3.2481 H         1 <0>         0.0000
     25 H7         -3.0597    2.8303   -3.8336 H         1 <0>         0.0000
     26 H8         -1.3265    3.9065   -2.3786 H         1 <0>         0.0000
     27 H9         -2.5633    5.1081   -1.7909 H         1 <0>         0.0000
     28 H10        -0.7166   -2.6474   -0.0783 H         1 <0>         0.0000
     29 H11        -0.8149   -2.7317   -1.8130 H         1 <0>         0.0000
     30 H12        -1.6775   -0.4717   -2.0315 H         1 <0>         0.0000
     31 H13        -2.6793   -1.3786   -0.8976 H         1 <0>         0.0000
     32 H14        -3.9814    3.2606   -0.8966 H         1 <0>         0.0000
     33 H15         0.8943   -2.3021   -3.0117 H         1 <0>         0.0000
     34 H16         2.3014   -2.5580   -1.9561 H         1 <0>         0.0000
     35 H17         2.0048   -0.9573   -2.6681 H         1 <0>         0.0000
     36 H18        -2.7172    0.9674   -2.0296 H         1 <0>         0.0000
@<TRIPOS>BOND
     1    1    2 ar
     2    1    3 ar
     3    1   19 1
     4    2    4 ar
     5    2   20 1
     6    3   14 ar
     7    3   21 1
     8    4    5 ar
     9    4    7 1
    10    5   14 ar
    11    5   15 1
    12    6   16 am
    13    6   17 am
    14    6   18 2
    15    7   16 1
    16    7   22 1
    17    7   23 1
    18    8    9 1
    19    8   12 1
    20    8   24 1
    21    8   25 1
    22    9   12 1
    23    9   26 1
    24    9   27 1
    25   10   11 1
    26   10   15 1
    27   10   28 1
    28   10   29 1
    29   11   16 1
    30   11   30 1
    31   11   31 1
    32   12   17 1
    33   12   32 1
    34   13   15 1
    35   13   33 1
    36   13   34 1
    37   13   35 1
    38   17   36 1
