@<TRIPOS>MOLECULE
*****
   18    18     0     0     0
SMALL
NO_CHARGES

@<TRIPOS>ATOM
      1 C1          1.5204    0.4727    1.5759 C.2       1 <0>         0.0000
      2 C2          0.2891    0.0196    1.0414 C.2       1 <0>         0.0000
      3 C3          1.4575    0.3171    2.9431 C.2       1 <0>         0.0000
      4 C4         -0.4888   -0.3990    2.0983 C.2       1 <0>         0.0000
      5 C5         -1.8531   -0.9585    2.1290 C.3       1 <0>         0.0000
      6 C6         -2.0084   -2.2659    1.3367 C.3       1 <0>         0.0000
      7 N1          0.2315   -0.2133    3.2493 N.pl3     1 <0>         0.0000
      8 N2         -2.8686   -0.0212    1.6605 N.3       1 <0>         0.0000
      9 F1         -3.2850   -2.7148    1.3459 F         1 <0>         0.0000
     10 F2         -1.6624   -2.0772    0.0434 F         1 <0>         0.0000
     11 F3         -1.2282   -3.2486    1.8341 F         1 <0>         0.0000
     12 H1          2.3618    0.8698    1.0258 H         1 <0>         0.0000
     13 H2          0.0037    0.0023   -0.0014 H         1 <0>         0.0000
     14 H3          2.1737    0.5367    3.7222 H         1 <0>         0.0000
     15 H4         -2.1657   -1.1857    3.1695 H         1 <0>         0.0000
     16 H5         -0.0899   -0.4321    4.1825 H         1 <0>         0.0000
     17 H6         -2.7608    0.9432    1.8915 H         1 <0>         0.0000
     18 H7         -3.7254   -0.3929    1.3098 H         1 <0>         0.0000
@<TRIPOS>BOND
     1    1    2 1
     2    1    3 2
     3    1   12 1
     4    2    4 2
     5    2   13 1
     6    3    7 1
     7    3   14 1
     8    4    5 1
     9    4    7 1
    10    5    6 1
    11    5    8 1
    12    5   15 1
    13    6    9 1
    14    6   10 1
    15    6   11 1
    16    7   16 1
    17    8   17 1
    18    8   18 1
