@<TRIPOS>MOLECULE
*****
   19    19     0     0     0
SMALL
NO_CHARGES

@<TRIPOS>ATOM
      1 C1         -4.3105    0.5096   -4.6197 C.2       1 <0>         0.0000
      2 C2         -3.0795    0.2833   -3.9287 C.2       1 <0>         0.0000
      3 C3         -5.2626    1.1000   -3.8277 C.2       1 <0>         0.0000
      4 C4         -3.1155    0.6932   -2.6198 C.2       1 <0>         0.0000
      5 C5         -1.8413   -0.4952   -0.8924 C.2       1 <0>         0.0000
      6 C6         -2.7410   -1.6923   -1.1456 C.3       1 <0>         0.0000
      7 C7         -1.2824    1.8467   -1.4572 C.3       1 <0>         0.0000
      8 N1         -2.0842    0.6357   -1.6650 N.am      1 <0>         0.0000
      9 O1         -0.9394   -0.5215   -0.0601 O.2       1 <0>         0.0000
     10 S1         -4.6818    1.3859   -2.2213 S.3       1 <0>         0.0000
     11 H1         -4.4798    0.2504   -5.6596 H         1 <0>         0.0000
     12 H2         -2.1967   -0.1666   -4.3717 H         1 <0>         0.0000
     13 H3         -6.2713    1.3858   -4.0985 H         1 <0>         0.0000
     14 H4         -2.5603   -2.1097   -2.1402 H         1 <0>         0.0000
     15 H5         -3.7996   -1.4246   -1.0941 H         1 <0>         0.0000
     16 H6         -2.5119   -2.4455   -0.3920 H         1 <0>         0.0000
     17 H7         -1.9131    2.6658   -1.0951 H         1 <0>         0.0000
     18 H8         -0.8146    2.1508   -2.3985 H         1 <0>         0.0000
     19 H9         -0.5157    1.6226   -0.7166 H         1 <0>         0.0000
@<TRIPOS>BOND
     1    1    2 1
     2    1    3 2
     3    1   11 1
     4    2    4 2
     5    2   12 1
     6    3   10 1
     7    3   13 1
     8    4    8 1
     9    4   10 1
    10    5    6 1
    11    5    8 am
    12    5    9 2
    13    6   14 1
    14    6   15 1
    15    6   16 1
    16    7    8 1
    17    7   17 1
    18    7   18 1
    19    7   19 1
