@<TRIPOS>MOLECULE
*****
   16    16     0     0     0
SMALL
NO_CHARGES

@<TRIPOS>ATOM
      1 C1          1.8851   -1.0363   -0.1124 C.ar      1 <0>         0.0000
      2 C2          0.7638   -0.4841    1.9551 C.ar      1 <0>         0.0000
      3 C3          0.8066   -0.4630    0.5610 C.ar      1 <0>         0.0000
      4 C4          2.9210   -1.6309    0.6081 C.ar      1 <0>         0.0000
      5 C5          1.7997   -1.0786    2.6757 C.ar      1 <0>         0.0000
      6 C6          2.8783   -1.6520    2.0022 C.ar      1 <0>         0.0000
      7 C7         -0.0160    1.2228   -1.0350 C.3       1 <0>         0.0000
      8 O1         -0.2050    0.1158   -0.1421 O.3       1 <0>         0.0000
      9 F1          3.9558   -2.1828   -0.0387 F         1 <0>         0.0000
     10 F2          1.7593   -1.0974    4.0143 F         1 <0>         0.0000
     11 F3          3.8727   -2.2232    2.6940 F         1 <0>         0.0000
     12 Cl1         1.3365    2.2762   -0.5449 Cl        1 <0>         0.0000
     13 Cl2        -1.5182    2.2244   -0.8994 Cl        1 <0>         0.0000
     14 Cl3         0.0983    0.7162   -2.7405 Cl        1 <0>         0.0000
     15 H1          1.9226   -1.0253   -1.1982 H         1 <0>         0.0000
     16 H2         -0.0740   -0.0396    2.4849 H         1 <0>         0.0000
@<TRIPOS>BOND
     1    1    3 ar
     2    1    4 ar
     3    1   15 1
     4    2    3 ar
     5    2    5 ar
     6    2   16 1
     7    3    8 1
     8    4    6 ar
     9    4    9 1
    10    5    6 ar
    11    5   10 1
    12    6   11 1
    13    7    8 1
    14    7   12 1
    15    7   13 1
    16    7   14 1
