@<TRIPOS>MOLECULE
*****
   35    36     0     0     0
SMALL
NO_CHARGES

@<TRIPOS>ATOM
      1 C1         -3.1286   -2.4173    0.6380 C.ar      1 <0>         0.0000
      2 C2         -4.4460   -2.8409    0.6198 C.ar      1 <0>         0.0000
      3 C3         -2.8918   -1.0774    0.2367 C.ar      1 <0>         0.0000
      4 C4         -5.1504   -0.8106   -0.1194 C.ar      1 <0>         0.0000
      5 C5         -1.3700    0.8350   -0.2224 C.3       1 <0>         0.0000
      6 C6         -0.4475   -1.2338    0.6460 C.3       1 <0>         0.0000
      7 C7          0.1520    0.8330   -0.4711 C.3       1 <0>         0.0000
      8 C8          0.6381   -0.1376    0.6485 C.3       1 <0>         0.0000
      9 C9         -6.2782    0.1063   -0.5177 C.3       1 <0>         0.0000
     10 C10         0.7535    2.2372   -0.3594 C.3       1 <0>         0.0000
     11 C11         0.4406    0.2560   -1.8699 C.3       1 <0>         0.0000
     12 C12         2.0502   -0.6961    0.4930 C.3       1 <0>         0.0000
     13 N1         -5.4788   -2.0612    0.2462 N.ar      1 <0>         0.0000
     14 N2         -3.9178   -0.2849   -0.1416 N.ar      1 <0>         0.0000
     15 N3         -1.6470   -0.5392    0.2049 N.pl3     1 <0>         0.0000
     16 O1          0.5462    0.6155    1.8740 O.3       1 <0>         0.0000
     17 H1         -2.3293   -3.0865    0.9355 H         1 <0>         0.0000
     18 H2         -4.6966   -3.8594    0.9157 H         1 <0>         0.0000
     19 H3         -1.6467    1.5459    0.5641 H         1 <0>         0.0000
     20 H4         -1.9463    1.0778   -1.1174 H         1 <0>         0.0000
     21 H5         -0.1881   -2.0594   -0.0315 H         1 <0>         0.0000
     22 H6         -0.5694   -1.6575    1.6514 H         1 <0>         0.0000
     23 H7         -6.5689    0.7256    0.3392 H         1 <0>         0.0000
     24 H8         -5.9614    0.7796   -1.3177 H         1 <0>         0.0000
     25 H9         -7.1484   -0.4737   -0.8297 H         1 <0>         0.0000
     26 H10         1.8354    2.2170   -0.5296 H         1 <0>         0.0000
     27 H11         0.5710    2.6724    0.6243 H         1 <0>         0.0000
     28 H12         0.3138    2.8933   -1.1189 H         1 <0>         0.0000
     29 H13         1.5145    0.2099   -2.0738 H         1 <0>         0.0000
     30 H14        -0.0108    0.9004   -2.6310 H         1 <0>         0.0000
     31 H15         0.0230   -0.7471   -2.0024 H         1 <0>         0.0000
     32 H16         2.7799    0.1182    0.4785 H         1 <0>         0.0000
     33 H17         2.1632   -1.2866   -0.4192 H         1 <0>         0.0000
     34 H18         2.2949   -1.3491    1.3400 H         1 <0>         0.0000
     35 H19         0.7664    0.0219    2.6093 H         1 <0>         0.0000
@<TRIPOS>BOND
     1    1    2 ar
     2    1    3 ar
     3    1   17 1
     4    2   13 ar
     5    2   18 1
     6    3   14 ar
     7    3   15 1
     8    4    9 1
     9    4   13 ar
    10    4   14 ar
    11    5    7 1
    12    5   15 1
    13    5   19 1
    14    5   20 1
    15    6    8 1
    16    6   15 1
    17    6   21 1
    18    6   22 1
    19    7    8 1
    20    7   10 1
    21    7   11 1
    22    8   12 1
    23    8   16 1
    24    9   23 1
    25    9   24 1
    26    9   25 1
    27   10   26 1
    28   10   27 1
    29   10   28 1
    30   11   29 1
    31   11   30 1
    32   11   31 1
    33   12   32 1
    34   12   33 1
    35   12   34 1
    36   16   35 1
