@<TRIPOS>MOLECULE
*****
   41    43     0     0     0
SMALL
NO_CHARGES

@<TRIPOS>ATOM
      1 C1          5.2213   -2.5554   -2.8686 C.ar      1 <0>         0.0000
      2 C2          5.7053   -3.5605   -6.3139 C.2       1 <0>         0.0000
      3 C3          4.6080   -1.3191   -2.9888 C.ar      1 <0>         0.0000
      4 C4          6.2443   -4.5820   -5.6003 C.2       1 <0>         0.0000
      5 C5          5.1935   -2.6112   -5.3404 C.ar      1 <0>         0.0000
      6 C6          5.4992   -3.1757   -4.0885 C.ar      1 <0>         0.0000
      7 C7          4.5477   -1.3387   -5.3295 C.ar      1 <0>         0.0000
      8 C8          1.0040    0.3528   -1.5041 C.3       1 <0>         0.0000
      9 C9          0.3634    1.7411   -1.3645 C.3       1 <0>         0.0000
     10 C10         1.0710    0.1242   -3.0167 C.3       1 <0>         0.0000
     11 C11         1.0426    2.5297   -2.4787 C.3       1 <0>         0.0000
     12 C12         4.2818   -1.2563   -7.7978 C.3       1 <0>         0.0000
     13 C13         2.3528    0.9376   -5.7677 C.3       1 <0>         0.0000
     14 C14         3.7811    0.7385   -6.3552 C.3       1 <0>         0.0000
     15 C15         2.3965    1.7495   -4.4758 C.3       1 <0>         0.0000
     16 N1          4.2668   -0.7299   -4.1587 N.ar      1 <0>         0.0000
     17 N2          4.1794   -0.6580   -6.4714 N.pl3     1 <0>         0.0000
     18 N3          1.1605    1.5366   -3.6314 N.4       1 <0>         0.0000
     19 O1          6.1285   -4.3709   -4.2419 O.3       1 <0>         0.0000
     20 H1          5.4802   -2.9930   -1.9116 H         1 <0>         0.0000
     21 H2          5.6934   -3.5078   -7.3912 H         1 <0>         0.0000
     22 H3          4.3715   -0.7483   -2.0916 H         1 <0>         0.0000
     23 H4          6.7348   -5.5012   -5.8870 H         1 <0>         0.0000
     24 H5          2.0106    0.3528   -1.0753 H         1 <0>         0.0000
     25 H6          0.4320   -0.4354   -1.0114 H         1 <0>         0.0000
     26 H7         -0.7190    1.6937   -1.5242 H         1 <0>         0.0000
     27 H8          0.5386    2.2001   -0.3896 H         1 <0>         0.0000
     28 H9          1.9406   -0.4425   -3.3474 H         1 <0>         0.0000
     29 H10         0.1630   -0.3392   -3.4047 H         1 <0>         0.0000
     30 H11         0.5089    3.4145   -2.8281 H         1 <0>         0.0000
     31 H12         2.0614    2.8107   -2.2051 H         1 <0>         0.0000
     32 H13         3.7140   -0.6496   -8.5045 H         1 <0>         0.0000
     33 H14         3.8467   -2.2587   -7.8057 H         1 <0>         0.0000
     34 H15         5.3181   -1.3121   -8.1537 H         1 <0>         0.0000
     35 H16         1.9354   -0.0525   -5.5741 H         1 <0>         0.0000
     36 H17         1.6985    1.4277   -6.4977 H         1 <0>         0.0000
     37 H18         3.8352    1.1793   -7.3512 H         1 <0>         0.0000
     38 H19         4.5103    1.2687   -5.7335 H         1 <0>         0.0000
     39 H20         3.2404    1.4254   -3.8654 H         1 <0>         0.0000
     40 H21         2.4671    2.8235   -4.6674 H         1 <0>         0.0000
     41 H22         0.3476    1.6651   -4.2382 H         1 <0>         0.0000
@<TRIPOS>BOND
     1    1    3 ar
     2    1    6 ar
     3    1   20 1
     4    2    4 2
     5    2    5 1
     6    2   21 1
     7    3   16 ar
     8    3   22 1
     9    4   19 1
    10    4   23 1
    11    5    6 ar
    12    5    7 ar
    13    6   19 1
    14    7   16 ar
    15    7   17 1
    16    8    9 1
    17    8   10 1
    18    8   24 1
    19    8   25 1
    20    9   11 1
    21    9   26 1
    22    9   27 1
    23   10   18 1
    24   10   28 1
    25   10   29 1
    26   11   18 1
    27   11   30 1
    28   11   31 1
    29   12   17 1
    30   12   32 1
    31   12   33 1
    32   12   34 1
    33   13   14 1
    34   13   15 1
    35   13   35 1
    36   13   36 1
    37   14   17 1
    38   14   37 1
    39   14   38 1
    40   15   18 1
    41   15   39 1
    42   15   40 1
    43   18   41 1
