@<TRIPOS>MOLECULE
*****
   51    54     0     0     0
SMALL
NO_CHARGES

@<TRIPOS>ATOM
      1 C1          2.4421    1.4520    2.8887 C.1       1 <0>         0.0000
      2 C2          1.1619   -0.1601    5.9604 C.ar      1 <0>         0.0000
      3 C3          1.7226    0.5443    3.7254 C.ar      1 <0>         0.0000
      4 C4          1.7749    0.7667    5.1191 C.ar      1 <0>         0.0000
      5 C5          0.5408   -1.2867    5.4034 C.ar      1 <0>         0.0000
      6 C6          1.0176   -0.6045    3.2336 C.ar      1 <0>         0.0000
      7 C7          0.8546   -0.2513   -1.7189 C.2       1 <0>         0.0000
      8 C8         -1.2592    1.5294   -0.6128 C.3       1 <0>         0.0000
      9 C9          2.7374    3.4689   -2.8629 C.3       1 <0>         0.0000
     10 C10         3.2079    2.9536   -4.2080 C.3       1 <0>         0.0000
     11 C11        -1.2069    0.0168   -0.3165 C.3       1 <0>         0.0000
     12 C12         0.2431   -2.0585   -0.0390 C.3       1 <0>         0.0000
     13 C13        -0.0282    2.0234   -1.3986 C.3       1 <0>         0.0000
     14 C14         0.1775   -2.1292    1.4880 C.3       1 <0>         0.0000
     15 C15         1.0961    0.0193    0.7925 C.3       1 <0>         0.0000
     16 C16         2.6035    2.0003   -3.2034 C.3       1 <0>         0.0000
     17 C17         0.2233   -0.5527   -0.3529 C.3       1 <0>         0.0000
     18 C18         2.4996    1.9643    5.6765 C.3       1 <0>         0.0000
     19 C19        -0.0911   -2.3434    6.2736 C.3       1 <0>         0.0000
     20 C20         1.2434    1.3893   -3.4721 C.3       1 <0>         0.0000
     21 N1          3.0622    2.2212    2.2653 N.1       1 <0>         0.0000
     22 N2          0.4687   -1.4956    4.0861 N.ar      1 <0>         0.0000
     23 N3          0.8556   -0.8935    1.9137 N.pl3     1 <0>         0.0000
     24 N4          0.5494    0.9756   -2.2475 N.am      1 <0>         0.0000
     25 O1          1.5726   -1.0663   -2.3033 O.2       1 <0>         0.0000
     26 H1          1.1842   -0.0236    7.0369 H         1 <0>         0.0000
     27 H2         -2.1692    1.7499   -1.1784 H         1 <0>         0.0000
     28 H3         -1.3232    2.1051    0.3159 H         1 <0>         0.0000
     29 H4          3.4830    3.7594   -2.1289 H         1 <0>         0.0000
     30 H5          1.8348    4.0745   -2.8475 H         1 <0>         0.0000
     31 H6          2.6151    3.2115   -5.0822 H         1 <0>         0.0000
     32 H7          4.2758    2.8927   -4.3944 H         1 <0>         0.0000
     33 H8         -1.6687   -0.1947    0.6535 H         1 <0>         0.0000
     34 H9         -1.7938   -0.5247   -1.0657 H         1 <0>         0.0000
     35 H10         1.1758   -2.4848   -0.4135 H         1 <0>         0.0000
     36 H11        -0.5842   -2.5912   -0.5152 H         1 <0>         0.0000
     37 H12        -0.3112    2.8533   -2.0506 H         1 <0>         0.0000
     38 H13         0.7360    2.4171   -0.7181 H         1 <0>         0.0000
     39 H14        -0.8504   -2.1460    1.8673 H         1 <0>         0.0000
     40 H15         0.6848   -3.0048    1.8997 H         1 <0>         0.0000
     41 H16         2.1537    0.0317    0.5071 H         1 <0>         0.0000
     42 H17         0.8106    1.0363    1.0607 H         1 <0>         0.0000
     43 H18         3.2934    1.3236   -2.7060 H         1 <0>         0.0000
     44 H19         3.5621    1.9340    5.4135 H         1 <0>         0.0000
     45 H20         2.0997    2.8953    5.2624 H         1 <0>         0.0000
     46 H21         2.4127    2.0005    6.7646 H         1 <0>         0.0000
     47 H22        -1.1419   -2.4779    5.9988 H         1 <0>         0.0000
     48 H23         0.4088   -3.3047    6.1149 H         1 <0>         0.0000
     49 H24        -0.0314   -2.0869    7.3340 H         1 <0>         0.0000
     50 H25         1.3504    0.5036   -4.1007 H         1 <0>         0.0000
     51 H26         0.6009    2.1067   -3.9958 H         1 <0>         0.0000
@<TRIPOS>BOND
     1    1    3 1
     2    1   21 3
     3    2    4 ar
     4    2    5 ar
     5    2   26 1
     6    3    4 ar
     7    3    6 ar
     8    4   18 1
     9    5   19 1
    10    5   22 ar
    11    6   22 ar
    12    6   23 1
    13    7   17 1
    14    7   24 am
    15    7   25 2
    16    8   11 1
    17    8   13 1
    18    8   27 1
    19    8   28 1
    20    9   10 1
    21    9   16 1
    22    9   29 1
    23    9   30 1
    24   10   16 1
    25   10   31 1
    26   10   32 1
    27   11   17 1
    28   11   33 1
    29   11   34 1
    30   12   14 1
    31   12   17 1
    32   12   35 1
    33   12   36 1
    34   13   24 1
    35   13   37 1
    36   13   38 1
    37   14   23 1
    38   14   39 1
    39   14   40 1
    40   15   17 1
    41   15   23 1
    42   15   41 1
    43   15   42 1
    44   16   20 1
    45   16   43 1
    46   18   44 1
    47   18   45 1
    48   18   46 1
    49   19   47 1
    50   19   48 1
    51   19   49 1
    52   20   24 1
    53   20   50 1
    54   20   51 1
