@<TRIPOS>MOLECULE
*****
   66    70     0     0     0
SMALL
NO_CHARGES

@<TRIPOS>ATOM
      1 C1         -4.2298   -2.1142   -2.9150 C.ar      1 <0>         0.0000
      2 C2         -5.9688   -8.3890    0.3872 C.ar      1 <0>         0.0000
      3 C3         -4.9363   -3.2919   -2.6877 C.ar      1 <0>         0.0000
      4 C4         -2.9777   -1.9048   -2.3262 C.ar      1 <0>         0.0000
      5 C5         -6.1319   -7.3274   -0.5032 C.ar      1 <0>         0.0000
      6 C6         -3.1400   -4.1256   -1.2951 C.ar      1 <0>         0.0000
      7 C7         -4.7130   -8.6677    0.9186 C.ar      1 <0>         0.0000
      8 C8         -4.4087   -4.3147   -1.8683 C.ar      1 <0>         0.0000
      9 C9         -2.4664   -2.9265   -1.5258 C.ar      1 <0>         0.0000
     10 C10        -3.6159   -7.8795    0.4667 C.ar      1 <0>         0.0000
     11 C11        -5.0070   -6.5466   -0.8121 C.ar      1 <0>         0.0000
     12 C12        -3.2543  -10.0796    2.2548 C.2       1 <0>         0.0000
     13 C13        -0.6609   -6.9717    2.1990 C.3       1 <0>         0.0000
     14 C14        -0.0658   -7.8899   -0.0735 C.3       1 <0>         0.0000
     15 C15        -2.1201   -3.0124    1.7367 C.3       1 <0>         0.0000
     16 C16        -1.9478   -0.7206    0.8981 C.3       1 <0>         0.0000
     17 C17         0.6110   -6.1215    2.0965 C.3       1 <0>         0.0000
     18 C18         1.1562   -6.9663   -0.0322 C.3       1 <0>         0.0000
     19 C19        -2.1283   -2.4433    3.1535 C.3       1 <0>         0.0000
     20 C20        -1.9655   -0.2429    2.3487 C.3       1 <0>         0.0000
     21 C21        -2.1656   -9.6245    1.2899 C.3       1 <0>         0.0000
     22 C22        -1.1977   -7.3272    0.8010 C.3       1 <0>         0.0000
     23 C23        -2.1283  -10.5924    0.0896 C.3       1 <0>         0.0000
     24 C24        -5.6547  -10.0976    2.7221 C.3       1 <0>         0.0000
     25 N1         -3.7819   -6.8277   -0.3500 N.ar      1 <0>         0.0000
     26 N2         -4.5144   -9.6195    1.9455 N.am      1 <0>         0.0000
     27 N3         -2.3600   -8.2255    0.9017 N.pl3     1 <0>         0.0000
     28 N4         -1.3755   -2.0783    0.8747 N.pl3     1 <0>         0.0000
     29 N5         -5.1864   -5.4532   -1.6674 N.pl3     1 <0>         0.0000
     30 O1         -3.0194  -10.8418    3.1898 O.2       1 <0>         0.0000
     31 O2         -0.3185   -3.9761   -0.4021 O.2       1 <0>         0.0000
     32 O3         -0.1942   -1.5826   -1.3052 O.2       1 <0>         0.0000
     33 O4          1.6082   -6.7699    1.3100 O.3       1 <0>         0.0000
     34 O5         -2.6956   -1.1364    3.1865 O.3       1 <0>         0.0000
     35 S1         -0.9263   -2.6645   -0.6474 S.o2      1 <0>         0.0000
     36 H1         -4.6593   -1.3505   -3.5574 H         1 <0>         0.0000
     37 H2         -6.8338   -8.9711    0.6860 H         1 <0>         0.0000
     38 H3         -5.9120   -3.4287   -3.1503 H         1 <0>         0.0000
     39 H4         -2.4067   -0.9990   -2.4975 H         1 <0>         0.0000
     40 H5         -7.1113   -7.0894   -0.9075 H         1 <0>         0.0000
     41 H6         -2.6970   -4.9088   -0.7012 H         1 <0>         0.0000
     42 H7         -0.4268   -7.8858    2.7564 H         1 <0>         0.0000
     43 H8         -1.4323   -6.4346    2.7645 H         1 <0>         0.0000
     44 H9         -0.4137   -8.0068   -1.1060 H         1 <0>         0.0000
     45 H10         0.2431   -8.8744    0.2938 H         1 <0>         0.0000
     46 H11        -1.6176   -3.9803    1.7264 H         1 <0>         0.0000
     47 H12        -3.1534   -3.1412    1.3818 H         1 <0>         0.0000
     48 H13        -2.9704   -0.7170    0.4913 H         1 <0>         0.0000
     49 H14        -1.3180   -0.0646    0.2948 H         1 <0>         0.0000
     50 H15         0.3841   -5.1388    1.6614 H         1 <0>         0.0000
     51 H16         1.0525   -5.9708    3.0855 H         1 <0>         0.0000
     52 H17         1.9944   -7.4182   -0.5692 H         1 <0>         0.0000
     53 H18         0.9253   -5.9988   -0.4939 H         1 <0>         0.0000
     54 H19        -2.7456   -3.0671    3.8048 H         1 <0>         0.0000
     55 H20        -1.1008   -2.4205    3.5455 H         1 <0>         0.0000
     56 H21        -0.9328   -0.1427    2.7132 H         1 <0>         0.0000
     57 H22        -2.4649    0.7265    2.4191 H         1 <0>         0.0000
     58 H23        -1.2331   -9.7001    1.8469 H         1 <0>         0.0000
     59 H24        -1.5610   -6.4162    0.3264 H         1 <0>         0.0000
     60 H25        -3.0623  -10.5407   -0.4780 H         1 <0>         0.0000
     61 H26        -1.9925  -11.6183    0.4448 H         1 <0>         0.0000
     62 H27        -1.3058  -10.3411   -0.5826 H         1 <0>         0.0000
     63 H28        -6.2960  -10.7508    2.1197 H         1 <0>         0.0000
     64 H29        -6.2448   -9.2502    3.0843 H         1 <0>         0.0000
     65 H30        -5.2669  -10.6659    3.5660 H         1 <0>         0.0000
     66 H31        -6.1246   -5.3834   -2.0382 H         1 <0>         0.0000
@<TRIPOS>BOND
     1    1    3 ar
     2    1    4 ar
     3    1   36 1
     4    2    5 ar
     5    2    7 ar
     6    2   37 1
     7    3    8 ar
     8    3   38 1
     9    4    9 ar
    10    4   39 1
    11    5   11 ar
    12    5   40 1
    13    6    8 ar
    14    6    9 ar
    15    6   41 1
    16    7   10 ar
    17    7   26 1
    18    8   29 1
    19    9   35 1
    20   10   25 ar
    21   10   27 1
    22   11   25 ar
    23   11   29 1
    24   12   21 1
    25   12   26 am
    26   12   30 2
    27   13   17 1
    28   13   22 1
    29   13   42 1
    30   13   43 1
    31   14   18 1
    32   14   22 1
    33   14   44 1
    34   14   45 1
    35   15   19 1
    36   15   28 1
    37   15   46 1
    38   15   47 1
    39   16   20 1
    40   16   28 1
    41   16   48 1
    42   16   49 1
    43   17   33 1
    44   17   50 1
    45   17   51 1
    46   18   33 1
    47   18   52 1
    48   18   53 1
    49   19   34 1
    50   19   54 1
    51   19   55 1
    52   20   34 1
    53   20   56 1
    54   20   57 1
    55   21   23 1
    56   21   27 1
    57   21   58 1
    58   22   27 1
    59   22   59 1
    60   23   60 1
    61   23   61 1
    62   23   62 1
    63   24   26 1
    64   24   63 1
    65   24   64 1
    66   24   65 1
    67   28   35 1
    68   29   66 1
    69   31   35 2
    70   32   35 2
