@<TRIPOS>MOLECULE
*****
   51    54     0     0     0
SMALL
NO_CHARGES

@<TRIPOS>ATOM
      1 C1          2.2672    1.8835    3.3657 C.1       1 <0>         0.0000
      2 C2          1.3673   -0.3101    6.2030 C.ar      1 <0>         0.0000
      3 C3          1.7233    0.7716    4.0794 C.ar      1 <0>         0.0000
      4 C4          1.8142    0.7999    5.4887 C.ar      1 <0>         0.0000
      5 C5          0.8675   -1.4189    5.5060 C.ar      1 <0>         0.0000
      6 C6          1.1522   -0.3818    3.4454 C.ar      1 <0>         0.0000
      7 C7          0.7278    0.6038   -1.4170 C.2       1 <0>         0.0000
      8 C8         -1.5144    1.9491    0.0088 C.3       1 <0>         0.0000
      9 C9         -1.6894    2.3601   -3.9227 C.3       1 <0>         0.0000
     10 C10        -0.9075    1.1889   -4.4842 C.3       1 <0>         0.0000
     11 C11        -1.2723    0.4284    0.0727 C.3       1 <0>         0.0000
     12 C12         0.4264   -1.4679    0.0219 C.3       1 <0>         0.0000
     13 C13        -0.3947    2.6976   -0.7430 C.3       1 <0>         0.0000
     14 C14         0.4346   -1.7506    1.5254 C.3       1 <0>         0.0000
     15 C15         1.0595    0.5691    1.1102 C.3       1 <0>         0.0000
     16 C16        -0.1909    2.4645   -4.1185 C.3       1 <0>         0.0000
     17 C17         0.2141    0.0521   -0.0798 C.3       1 <0>         0.0000
     18 C18         2.4022    1.9947    6.1937 C.3       1 <0>         0.0000
     19 C19         0.4189   -2.6626    6.2307 C.3       1 <0>         0.0000
     20 C20         0.7858    2.5073   -2.9517 C.3       1 <0>         0.0000
     21 N1          2.7396    2.8172    2.8462 N.1       1 <0>         0.0000
     22 N2          0.7609   -1.4482    4.1749 N.ar      1 <0>         0.0000
     23 N3          0.9697   -0.5059    2.1023 N.pl3     1 <0>         0.0000
     24 N4          0.2848    1.8593   -1.7375 N.am      1 <0>         0.0000
     25 O1          1.4594   -0.0544   -2.1599 O.2       1 <0>         0.0000
     26 H1          1.4237   -0.3249    7.2869 H         1 <0>         0.0000
     27 H2         -2.4766    2.1368   -0.4769 H         1 <0>         0.0000
     28 H3         -1.5890    2.3728    1.0150 H         1 <0>         0.0000
     29 H4         -2.3336    2.9232   -4.5920 H         1 <0>         0.0000
     30 H5         -2.0714    2.2573   -2.9122 H         1 <0>         0.0000
     31 H6         -0.7516    0.3312   -3.8380 H         1 <0>         0.0000
     32 H7         -1.0212    0.9478   -5.5370 H         1 <0>         0.0000
     33 H8         -1.6671    0.0216    1.0094 H         1 <0>         0.0000
     34 H9         -1.8200   -0.0652   -0.7371 H         1 <0>         0.0000
     35 H10         1.3858   -1.7220   -0.4326 H         1 <0>         0.0000
     36 H11        -0.3508   -2.0300   -0.5024 H         1 <0>         0.0000
     37 H12        -0.8119    3.5573   -1.2703 H         1 <0>         0.0000
     38 H13         0.3443    3.0951   -0.0352 H         1 <0>         0.0000
     39 H14        -0.5660   -1.9516    1.9243 H         1 <0>         0.0000
     40 H15         1.0642   -2.6006    1.7988 H         1 <0>         0.0000
     41 H16         2.0969    0.7450    0.8043 H         1 <0>         0.0000
     42 H17         0.6700    1.5001    1.5203 H         1 <0>         0.0000
     43 H18         0.1309    3.0834   -4.9540 H         1 <0>         0.0000
     44 H19         3.4428    2.1526    5.8918 H         1 <0>         0.0000
     45 H20         1.8586    2.9099    5.9384 H         1 <0>         0.0000
     46 H21         2.3717    1.8614    7.2772 H         1 <0>         0.0000
     47 H22        -0.6022   -2.9225    5.9355 H         1 <0>         0.0000
     48 H23         1.0594   -3.5066    5.9533 H         1 <0>         0.0000
     49 H24         0.4557   -2.5373    7.3155 H         1 <0>         0.0000
     50 H25         1.0246    3.5481   -2.7045 H         1 <0>         0.0000
     51 H26         1.7141    2.0072   -3.2359 H         1 <0>         0.0000
@<TRIPOS>BOND
     1    1    3 1
     2    1   21 3
     3    2    4 ar
     4    2    5 ar
     5    2   26 1
     6    3    4 ar
     7    3    6 ar
     8    4   18 1
     9    5   19 1
    10    5   22 ar
    11    6   22 ar
    12    6   23 1
    13    7   17 1
    14    7   24 am
    15    7   25 2
    16    8   11 1
    17    8   13 1
    18    8   27 1
    19    8   28 1
    20    9   10 1
    21    9   16 1
    22    9   29 1
    23    9   30 1
    24   10   16 1
    25   10   31 1
    26   10   32 1
    27   11   17 1
    28   11   33 1
    29   11   34 1
    30   12   14 1
    31   12   17 1
    32   12   35 1
    33   12   36 1
    34   13   24 1
    35   13   37 1
    36   13   38 1
    37   14   23 1
    38   14   39 1
    39   14   40 1
    40   15   17 1
    41   15   23 1
    42   15   41 1
    43   15   42 1
    44   16   20 1
    45   16   43 1
    46   18   44 1
    47   18   45 1
    48   18   46 1
    49   19   47 1
    50   19   48 1
    51   19   49 1
    52   20   24 1
    53   20   50 1
    54   20   51 1
