@<TRIPOS>MOLECULE
*****
   51    54     0     0     0
SMALL
NO_CHARGES

@<TRIPOS>ATOM
      1 C1         -1.9826   -2.6282   -3.6850 C.1       1 <0>         0.0000
      2 C2         -0.6255   -1.3986   -6.8971 C.ar      1 <0>         0.0000
      3 C3         -1.1740   -1.8883   -4.6019 C.ar      1 <0>         0.0000
      4 C4         -1.4592   -2.0329   -5.9771 C.ar      1 <0>         0.0000
      5 C5          0.4752   -0.6659   -6.4331 C.ar      1 <0>         0.0000
      6 C6         -0.0611   -1.0740   -4.2080 C.ar      1 <0>         0.0000
      7 C7         -0.1117   -0.6581    0.7358 C.2       1 <0>         0.0000
      8 C8         -0.3564    2.1982    0.3609 C.3       1 <0>         0.0000
      9 C9          1.7945   -0.9689    3.8122 C.3       1 <0>         0.0000
     10 C10         0.9262   -1.1616    5.0383 C.3       1 <0>         0.0000
     11 C11        -0.6682    1.3030   -0.8338 C.3       1 <0>         0.0000
     12 C12         1.5086   -0.0116   -1.0767 C.3       1 <0>         0.0000
     13 C13        -0.9128    1.5589    1.6252 C.3       1 <0>         0.0000
     14 C14         1.4916   -0.0449   -2.6065 C.3       1 <0>         0.0000
     15 C15        -0.5360   -1.0700   -1.7207 C.3       1 <0>         0.0000
     16 C16         0.5364   -0.1472    3.9841 C.3       1 <0>         0.0000
     17 C17         0.0108   -0.0696   -0.6797 C.3       1 <0>         0.0000
     18 C18        -2.6225   -2.8752   -6.4328 C.3       1 <0>         0.0000
     19 C19         1.4374   -0.0072   -7.3893 C.3       1 <0>         0.0000
     20 C20        -0.6598   -0.4290    3.0984 C.3       1 <0>         0.0000
     21 N1         -2.6769   -3.2753   -3.0045 N.1       1 <0>         0.0000
     22 N2          0.7429   -0.5075   -5.1341 N.ar      1 <0>         0.0000
     23 N3          0.2808   -0.8179   -2.9167 N.pl3     1 <0>         0.0000
     24 N4         -0.5315    0.1507    1.7546 N.am      1 <0>         0.0000
     25 O1          0.2029   -1.8377    0.9308 O.2       1 <0>         0.0000
     26 H1         -0.8131   -1.4897   -7.9624 H         1 <0>         0.0000
     27 H2          0.7252    2.3410    0.4631 H         1 <0>         0.0000
     28 H3         -0.8029    3.1902    0.2369 H         1 <0>         0.0000
     29 H4          2.7507   -0.4691    3.9398 H         1 <0>         0.0000
     30 H5          1.7757   -1.7403    3.0494 H         1 <0>         0.0000
     31 H6          0.3390   -2.0738    5.1022 H         1 <0>         0.0000
     32 H7          1.2896   -0.7941    5.9936 H         1 <0>         0.0000
     33 H8         -1.7549    1.1657   -0.8999 H         1 <0>         0.0000
     34 H9         -0.3566    1.7725   -1.7725 H         1 <0>         0.0000
     35 H10         2.0100   -0.8977   -0.6801 H         1 <0>         0.0000
     36 H11         2.0183    0.8744   -0.6895 H         1 <0>         0.0000
     37 H12        -0.5485    2.0913    2.5103 H         1 <0>         0.0000
     38 H13        -2.0105    1.6385    1.6330 H         1 <0>         0.0000
     39 H14         1.4296    0.9552   -3.0499 H         1 <0>         0.0000
     40 H15         2.3767   -0.5257   -3.0309 H         1 <0>         0.0000
     41 H16        -0.4184   -2.0941   -1.3602 H         1 <0>         0.0000
     42 H17        -1.5927   -0.8906   -1.9263 H         1 <0>         0.0000
     43 H18         0.6766    0.8975    4.2567 H         1 <0>         0.0000
     44 H19        -2.4987   -3.9154   -6.1141 H         1 <0>         0.0000
     45 H20        -3.5608   -2.5220   -5.9935 H         1 <0>         0.0000
     46 H21        -2.7160   -2.8541   -7.5209 H         1 <0>         0.0000
     47 H22         1.5283    1.0585   -7.1575 H         1 <0>         0.0000
     48 H23         2.4340   -0.4476   -7.2779 H         1 <0>         0.0000
     49 H24         1.1192   -0.1193   -8.4286 H         1 <0>         0.0000
     50 H25        -1.5733   -0.0238    3.5511 H         1 <0>         0.0000
     51 H26        -0.7900   -1.5052    2.9798 H         1 <0>         0.0000
@<TRIPOS>BOND
     1    1    3 1
     2    1   21 3
     3    2    4 ar
     4    2    5 ar
     5    2   26 1
     6    3    4 ar
     7    3    6 ar
     8    4   18 1
     9    5   19 1
    10    5   22 ar
    11    6   22 ar
    12    6   23 1
    13    7   17 1
    14    7   24 am
    15    7   25 2
    16    8   11 1
    17    8   13 1
    18    8   27 1
    19    8   28 1
    20    9   10 1
    21    9   16 1
    22    9   29 1
    23    9   30 1
    24   10   16 1
    25   10   31 1
    26   10   32 1
    27   11   17 1
    28   11   33 1
    29   11   34 1
    30   12   14 1
    31   12   17 1
    32   12   35 1
    33   12   36 1
    34   13   24 1
    35   13   37 1
    36   13   38 1
    37   14   23 1
    38   14   39 1
    39   14   40 1
    40   15   17 1
    41   15   23 1
    42   15   41 1
    43   15   42 1
    44   16   20 1
    45   16   43 1
    46   18   44 1
    47   18   45 1
    48   18   46 1
    49   19   47 1
    50   19   48 1
    51   19   49 1
    52   20   24 1
    53   20   50 1
    54   20   51 1
