@<TRIPOS>MOLECULE
*****
   51    54     0     0     0
SMALL
NO_CHARGES

@<TRIPOS>ATOM
      1 C1         -2.0512   -3.3354   -3.1997 C.1       1 <0>         0.0000
      2 C2         -3.6696   -0.3442   -4.6471 C.ar      1 <0>         0.0000
      3 C3         -2.3341   -1.9565   -3.4489 C.ar      1 <0>         0.0000
      4 C4         -3.3460   -1.6765   -4.3933 C.ar      1 <0>         0.0000
      5 C5         -2.9884    0.6676   -3.9591 C.ar      1 <0>         0.0000
      6 C6         -1.6748   -0.8618   -2.7959 C.ar      1 <0>         0.0000
      7 C7         -0.2381   -0.4990    1.1832 C.2       1 <0>         0.0000
      8 C8          1.4790    1.8316    0.8780 C.3       1 <0>         0.0000
      9 C9         -3.7274    0.8624    3.5598 C.3       1 <0>         0.0000
     10 C10        -3.4699    0.8273    2.0674 C.3       1 <0>         0.0000
     11 C11         1.9196    0.5030    0.2694 C.3       1 <0>         0.0000
     12 C12         1.0979   -1.7783   -0.5374 C.3       1 <0>         0.0000
     13 C13         0.7673    1.5789    2.2012 C.3       1 <0>         0.0000
     14 C14        -0.0616   -2.2494   -1.4210 C.3       1 <0>         0.0000
     15 C15        -0.1439    0.1825   -1.2003 C.3       1 <0>         0.0000
     16 C16        -2.3852    1.2978    3.0111 C.3       1 <0>         0.0000
     17 C17         0.7017   -0.3776   -0.0269 C.3       1 <0>         0.0000
     18 C18        -4.0639   -2.7963   -5.1011 C.3       1 <0>         0.0000
     19 C19        -3.3076    2.1238   -4.1884 C.3       1 <0>         0.0000
     20 C20        -1.1719    0.4193    3.2374 C.3       1 <0>         0.0000
     21 N1         -1.8914   -4.4847   -3.0672 N.1       1 <0>         0.0000
     22 N2         -2.0239    0.4153   -3.0710 N.ar      1 <0>         0.0000
     23 N3         -0.6779   -0.9972   -1.8823 N.pl3     1 <0>         0.0000
     24 N4         -0.2099    0.4895    2.1293 N.am      1 <0>         0.0000
     25 O1         -1.0382   -1.4396    1.2525 O.2       1 <0>         0.0000
     26 H1         -4.4435   -0.0939   -5.3658 H         1 <0>         0.0000
     27 H2          2.3358    2.4891    1.0581 H         1 <0>         0.0000
     28 H3          0.8098    2.3554    0.1864 H         1 <0>         0.0000
     29 H4         -4.3924    1.6257    3.9531 H         1 <0>         0.0000
     30 H5         -3.7734   -0.0875    4.0858 H         1 <0>         0.0000
     31 H6         -3.3286   -0.1409    1.5984 H         1 <0>         0.0000
     32 H7         -3.9632    1.5706    1.4477 H         1 <0>         0.0000
     33 H8          2.4859    0.6627   -0.6549 H         1 <0>         0.0000
     34 H9          2.5881   -0.0183    0.9672 H         1 <0>         0.0000
     35 H10         1.2927   -2.4791    0.2765 H         1 <0>         0.0000
     36 H11         2.0115   -1.6823   -1.1344 H         1 <0>         0.0000
     37 H12         1.5072    1.3398    2.9803 H         1 <0>         0.0000
     38 H13         0.2450    2.4850    2.5271 H         1 <0>         0.0000
     39 H14         0.2916   -2.8444   -2.2663 H         1 <0>         0.0000
     40 H15        -0.7761   -2.8380   -0.8442 H         1 <0>         0.0000
     41 H16        -0.9576    0.8322   -0.8737 H         1 <0>         0.0000
     42 H17         0.4848    0.7724   -1.8811 H         1 <0>         0.0000
     43 H18        -2.1911    2.3690    3.0246 H         1 <0>         0.0000
     44 H19        -3.3604   -3.4258   -5.6554 H         1 <0>         0.0000
     45 H20        -4.5719   -3.4499   -4.3847 H         1 <0>         0.0000
     46 H21        -4.8053   -2.4025   -5.7999 H         1 <0>         0.0000
     47 H22        -3.6088    2.5938   -3.2466 H         1 <0>         0.0000
     48 H23        -2.4165    2.6522   -4.5425 H         1 <0>         0.0000
     49 H24        -4.1089    2.2545   -4.9198 H         1 <0>         0.0000
     50 H25        -1.4792   -0.6218    3.3412 H         1 <0>         0.0000
     51 H26        -0.6510    0.7135    4.1569 H         1 <0>         0.0000
@<TRIPOS>BOND
     1    1    3 1
     2    1   21 3
     3    2    4 ar
     4    2    5 ar
     5    2   26 1
     6    3    4 ar
     7    3    6 ar
     8    4   18 1
     9    5   19 1
    10    5   22 ar
    11    6   22 ar
    12    6   23 1
    13    7   17 1
    14    7   24 am
    15    7   25 2
    16    8   11 1
    17    8   13 1
    18    8   27 1
    19    8   28 1
    20    9   10 1
    21    9   16 1
    22    9   29 1
    23    9   30 1
    24   10   16 1
    25   10   31 1
    26   10   32 1
    27   11   17 1
    28   11   33 1
    29   11   34 1
    30   12   14 1
    31   12   17 1
    32   12   35 1
    33   12   36 1
    34   13   24 1
    35   13   37 1
    36   13   38 1
    37   14   23 1
    38   14   39 1
    39   14   40 1
    40   15   17 1
    41   15   23 1
    42   15   41 1
    43   15   42 1
    44   16   20 1
    45   16   43 1
    46   18   44 1
    47   18   45 1
    48   18   46 1
    49   19   47 1
    50   19   48 1
    51   19   49 1
    52   20   24 1
    53   20   50 1
    54   20   51 1
