@<TRIPOS>MOLECULE
*****
   51    54     0     0     0
SMALL
NO_CHARGES

@<TRIPOS>ATOM
      1 C1         -2.8879    3.8119   -1.8429 C.1       1 <0>         0.0000
      2 C2          0.0412    5.2497   -3.5784 C.ar      1 <0>         0.0000
      3 C3         -1.5593    3.9218   -2.3575 C.ar      1 <0>         0.0000
      4 C4         -1.2582    5.0836   -3.1019 C.ar      1 <0>         0.0000
      5 C5          1.0038    4.2720   -3.2940 C.ar      1 <0>         0.0000
      6 C6         -0.5236    2.9535   -2.1361 C.ar      1 <0>         0.0000
      7 C7          0.0537    0.3236    1.2611 C.2       1 <0>         0.0000
      8 C8          0.2349   -2.5093    0.6210 C.3       1 <0>         0.0000
      9 C9          2.6444   -0.7815    4.5934 C.3       1 <0>         0.0000
     10 C10         2.0374    0.2570    5.5148 C.3       1 <0>         0.0000
     11 C11         0.6414   -1.4889   -0.4380 C.3       1 <0>         0.0000
     12 C12        -1.5756   -0.1879   -0.5489 C.3       1 <0>         0.0000
     13 C13         0.6392   -2.0026    1.9991 C.3       1 <0>         0.0000
     14 C14        -1.9321    1.2602   -0.8907 C.3       1 <0>         0.0000
     15 C15         0.4691    0.9461   -1.1442 C.3       1 <0>         0.0000
     16 C16         1.6771    0.2483    4.0476 C.3       1 <0>         0.0000
     17 C17        -0.0624   -0.1484   -0.1987 C.3       1 <0>         0.0000
     18 C18        -2.3174    6.1243   -3.3583 C.3       1 <0>         0.0000
     19 C19         2.4304    4.4179   -3.7611 C.3       1 <0>         0.0000
     20 C20         0.2765   -0.1499    3.6295 C.3       1 <0>         0.0000
     21 N1         -3.9914    3.8067   -1.4599 N.1       1 <0>         0.0000
     22 N2          0.7278    3.1649   -2.6016 N.ar      1 <0>         0.0000
     23 N3         -0.6929    1.7794   -1.4744 N.pl3     1 <0>         0.0000
     24 N4          0.1931   -0.6259    2.2426 N.am      1 <0>         0.0000
     25 O1         -0.0646    1.5218    1.5370 O.2       1 <0>         0.0000
     26 H1          0.3079    6.1317   -4.1521 H         1 <0>         0.0000
     27 H2         -0.8469   -2.6790    0.5859 H         1 <0>         0.0000
     28 H3          0.7206   -3.4745    0.4430 H         1 <0>         0.0000
     29 H4          3.6958   -0.6904    4.3357 H         1 <0>         0.0000
     30 H5          2.2954   -1.8058    4.6967 H         1 <0>         0.0000
     31 H6          1.2840   -0.0772    6.2236 H         1 <0>         0.0000
     32 H7          2.6725    1.0574    5.8820 H         1 <0>         0.0000
     33 H8          1.7296   -1.3430   -0.4023 H         1 <0>         0.0000
     34 H9          0.4035   -1.8480   -1.4456 H         1 <0>         0.0000
     35 H10        -2.1988   -0.5806    0.2578 H         1 <0>         0.0000
     36 H11        -1.7149   -0.8270   -1.4284 H         1 <0>         0.0000
     37 H12         0.2074   -2.6366    2.7814 H         1 <0>         0.0000
     38 H13         1.7311   -2.0587    2.1086 H         1 <0>         0.0000
     39 H14        -2.7571    1.3122   -1.6027 H         1 <0>         0.0000
     40 H15        -2.2066    1.8242    0.0054 H         1 <0>         0.0000
     41 H16         1.2526    1.5485   -0.6822 H         1 <0>         0.0000
     42 H17         0.8851    0.4992   -2.0549 H         1 <0>         0.0000
     43 H18         2.1015    1.0451    3.4426 H         1 <0>         0.0000
     44 H19        -3.1762    5.6915   -3.8813 H         1 <0>         0.0000
     45 H20        -2.6975    6.5351   -2.4173 H         1 <0>         0.0000
     46 H21        -1.9192    6.9443   -3.9601 H         1 <0>         0.0000
     47 H22         3.1053    4.4348   -2.8991 H         1 <0>         0.0000
     48 H23         2.7141    3.5580   -4.3763 H         1 <0>         0.0000
     49 H24         2.5774    5.3322   -4.3413 H         1 <0>         0.0000
     50 H25        -0.3930    0.7065    3.7231 H         1 <0>         0.0000
     51 H26        -0.0966   -0.9506    4.2789 H         1 <0>         0.0000
@<TRIPOS>BOND
     1    1    3 1
     2    1   21 3
     3    2    4 ar
     4    2    5 ar
     5    2   26 1
     6    3    4 ar
     7    3    6 ar
     8    4   18 1
     9    5   19 1
    10    5   22 ar
    11    6   22 ar
    12    6   23 1
    13    7   17 1
    14    7   24 am
    15    7   25 2
    16    8   11 1
    17    8   13 1
    18    8   27 1
    19    8   28 1
    20    9   10 1
    21    9   16 1
    22    9   29 1
    23    9   30 1
    24   10   16 1
    25   10   31 1
    26   10   32 1
    27   11   17 1
    28   11   33 1
    29   11   34 1
    30   12   14 1
    31   12   17 1
    32   12   35 1
    33   12   36 1
    34   13   24 1
    35   13   37 1
    36   13   38 1
    37   14   23 1
    38   14   39 1
    39   14   40 1
    40   15   17 1
    41   15   23 1
    42   15   41 1
    43   15   42 1
    44   16   20 1
    45   16   43 1
    46   18   44 1
    47   18   45 1
    48   18   46 1
    49   19   47 1
    50   19   48 1
    51   19   49 1
    52   20   24 1
    53   20   50 1
    54   20   51 1
