@<TRIPOS>MOLECULE
*****
   66    70     0     0     0
SMALL
NO_CHARGES

@<TRIPOS>ATOM
      1 C1         -0.4036   -3.5974   -4.4584 C.ar      1 <0>         0.0000
      2 C2         -1.6802    1.4331   -9.6474 C.ar      1 <0>         0.0000
      3 C3         -0.3136   -2.9377   -5.6816 C.ar      1 <0>         0.0000
      4 C4         -1.2595   -3.1311   -3.4561 C.ar      1 <0>         0.0000
      5 C5         -1.0953    0.3125   -9.0602 C.ar      1 <0>         0.0000
      6 C6         -1.9215   -1.2862   -4.9408 C.ar      1 <0>         0.0000
      7 C7         -2.6996    2.1150   -8.9887 C.ar      1 <0>         0.0000
      8 C8         -1.0686   -1.7737   -5.9473 C.ar      1 <0>         0.0000
      9 C9         -1.9962   -1.9811   -3.7353 C.ar      1 <0>         0.0000
     10 C10        -3.1511    1.5886   -7.7449 C.ar      1 <0>         0.0000
     11 C11        -1.5478   -0.0783   -7.7895 C.ar      1 <0>         0.0000
     12 C12        -4.3665    3.8849   -8.9449 C.2       1 <0>         0.0000
     13 C13        -4.1305    3.4208   -4.9860 C.3       1 <0>         0.0000
     14 C14        -5.9298    1.6995   -5.3699 C.3       1 <0>         0.0000
     15 C15        -4.4493    3.3462   -3.4921 C.3       1 <0>         0.0000
     16 C16        -6.1817    1.7088   -3.8601 C.3       1 <0>         0.0000
     17 C17        -5.7145   -2.1762   -2.0411 C.3       1 <0>         0.0000
     18 C18        -5.2131   -2.1587   -4.1475 C.3       1 <0>         0.0000
     19 C19        -5.1240    2.9734   -7.9876 C.3       1 <0>         0.0000
     20 C20        -4.4840    2.1024   -5.6917 C.3       1 <0>         0.0000
     21 C21        -6.5137   -2.2987   -3.3458 C.3       1 <0>         0.0000
     22 C22        -6.0883    2.0824   -8.7947 C.3       1 <0>         0.0000
     23 C23        -2.4676    4.1012  -10.4664 C.3       1 <0>         0.0000
     24 C24        -6.2002    3.0472   -1.8608 C.3       1 <0>         0.0000
     25 N1         -2.5580    0.5335   -7.1595 N.ar      1 <0>         0.0000
     26 N2         -3.2071    3.3499   -9.4559 N.am      1 <0>         0.0000
     27 N3         -4.2202    2.1978   -7.1373 N.pl3     1 <0>         0.0000
     28 N4         -5.8628    3.0155   -3.2796 N.3       1 <0>         0.0000
     29 N5         -4.4734   -2.3853   -2.8631 N.pl3     1 <0>         0.0000
     30 N6         -0.9077   -1.1664   -7.1877 N.pl3     1 <0>         0.0000
     31 O1         -4.8039    4.9883   -9.2648 O.2       1 <0>         0.0000
     32 O2         -2.7295   -1.7388   -1.1556 O.2       1 <0>         0.0000
     33 O3         -3.4701    0.0242   -2.8281 O.2       1 <0>         0.0000
     34 F1         -7.4579   -1.3379   -3.5648 F         1 <0>         0.0000
     35 F2         -7.1308   -3.5081   -3.5028 F         1 <0>         0.0000
     36 S1         -3.1464   -1.3774   -2.5106 S.o2      1 <0>         0.0000
     37 H1          0.1970   -4.4862   -4.2864 H         1 <0>         0.0000
     38 H2         -1.3115    1.7854  -10.6045 H         1 <0>         0.0000
     39 H3          0.3548   -3.3250   -6.4485 H         1 <0>         0.0000
     40 H4         -1.3490   -3.6286   -2.4967 H         1 <0>         0.0000
     41 H5         -0.2901   -0.2182   -9.5596 H         1 <0>         0.0000
     42 H6         -2.4935   -0.3867   -5.1056 H         1 <0>         0.0000
     43 H7         -4.6996    4.2457   -5.4299 H         1 <0>         0.0000
     44 H8         -3.0661    3.6348   -5.1316 H         1 <0>         0.0000
     45 H9         -6.1431    0.7045   -5.7772 H         1 <0>         0.0000
     46 H10        -6.6316    2.4010   -5.8326 H         1 <0>         0.0000
     47 H11        -3.7873    2.6074   -3.0063 H         1 <0>         0.0000
     48 H12        -4.2509    4.3189   -3.0286 H         1 <0>         0.0000
     49 H13        -7.2380    1.4919   -3.6712 H         1 <0>         0.0000
     50 H14        -5.5908    0.9125   -3.3787 H         1 <0>         0.0000
     51 H15        -5.8001   -1.1757   -1.6069 H         1 <0>         0.0000
     52 H16        -5.8735   -2.9520   -1.2923 H         1 <0>         0.0000
     53 H17        -5.0182   -2.9215   -4.9022 H         1 <0>         0.0000
     54 H18        -5.0972   -1.1515   -4.5561 H         1 <0>         0.0000
     55 H19        -5.6990    3.6462   -7.3535 H         1 <0>         0.0000
     56 H20        -3.8211    1.3247   -5.3127 H         1 <0>         0.0000
     57 H21        -5.5300    1.4002   -9.4433 H         1 <0>         0.0000
     58 H22        -6.7409    2.7021   -9.4167 H         1 <0>         0.0000
     59 H23        -6.7059    1.4853   -8.1198 H         1 <0>         0.0000
     60 H24        -2.5167    3.6039  -11.4416 H         1 <0>         0.0000
     61 H25        -1.4199    4.2031  -10.1673 H         1 <0>         0.0000
     62 H26        -2.9258    5.0854  -10.5490 H         1 <0>         0.0000
     63 H27        -5.9952    4.0430   -1.4543 H         1 <0>         0.0000
     64 H28        -5.6303    2.3091   -1.2658 H         1 <0>         0.0000
     65 H29        -7.2681    2.8421   -1.7305 H         1 <0>         0.0000
     66 H30        -0.1999   -1.5909   -7.7716 H         1 <0>         0.0000
@<TRIPOS>BOND
     1    1    3 ar
     2    1    4 ar
     3    1   37 1
     4    2    5 ar
     5    2    7 ar
     6    2   38 1
     7    3    8 ar
     8    3   39 1
     9    4    9 ar
    10    4   40 1
    11    5   11 ar
    12    5   41 1
    13    6    8 ar
    14    6    9 ar
    15    6   42 1
    16    7   10 ar
    17    7   26 1
    18    8   30 1
    19    9   36 1
    20   10   25 ar
    21   10   27 1
    22   11   25 ar
    23   11   30 1
    24   12   19 1
    25   12   26 am
    26   12   31 2
    27   13   15 1
    28   13   20 1
    29   13   43 1
    30   13   44 1
    31   14   16 1
    32   14   20 1
    33   14   45 1
    34   14   46 1
    35   15   28 1
    36   15   47 1
    37   15   48 1
    38   16   28 1
    39   16   49 1
    40   16   50 1
    41   17   21 1
    42   17   29 1
    43   17   51 1
    44   17   52 1
    45   18   21 1
    46   18   29 1
    47   18   53 1
    48   18   54 1
    49   19   22 1
    50   19   27 1
    51   19   55 1
    52   20   27 1
    53   20   56 1
    54   21   34 1
    55   21   35 1
    56   22   57 1
    57   22   58 1
    58   22   59 1
    59   23   26 1
    60   23   60 1
    61   23   61 1
    62   23   62 1
    63   24   28 1
    64   24   63 1
    65   24   64 1
    66   24   65 1
    67   29   36 1
    68   30   66 1
    69   32   36 2
    70   33   36 2
