@<TRIPOS>MOLECULE
*****
   38    39     0     0     0
SMALL
NO_CHARGES

@<TRIPOS>ATOM
      1 C1          1.7384    0.1750    3.5554 C.1       1 <0>         0.0000
      2 C2          0.2228    0.1677    1.5724 C.2       1 <0>         0.0000
      3 C3          0.7063   -0.7137   -2.0598 C.3       1 <0>         0.0000
      4 C4         -3.9281   -1.6113   -1.9596 C.3       1 <0>         0.0000
      5 C5         -0.5183   -1.6321   -1.9943 C.3       1 <0>         0.0000
      6 C6         -2.8565   -0.5231   -2.0748 C.3       1 <0>         0.0000
      7 C7          1.2256   -0.4242   -0.6470 C.3       1 <0>         0.0000
      8 C8         -3.8131   -2.0179   -0.4912 C.3       1 <0>         0.0000
      9 C9         -1.1655    0.2562   -0.4114 C.3       1 <0>         0.0000
     10 C10        -1.6721   -0.9873   -1.1776 C.3       1 <0>         0.0000
     11 C11        -1.6904   -4.6416   -0.0888 C.3       1 <0>         0.0000
     12 C12         1.5595   -0.2862    2.1771 C.3       1 <0>         0.0000
     13 N1          1.9461    0.5312    4.6416 N.1       1 <0>         0.0000
     14 N2          0.1376    0.0718    0.2077 N.am      1 <0>         0.0000
     15 N3         -2.3533   -1.9724   -0.2778 N.pl3     1 <0>         0.0000
     16 O1         -0.6986    0.5548    2.2819 O.2       1 <0>         0.0000
     17 O2         -2.5627   -3.1973    1.9208 O.2       1 <0>         0.0000
     18 O3         -0.2531   -2.6898    0.9446 O.2       1 <0>         0.0000
     19 S1         -1.6665   -3.0501    0.7753 S.o2      1 <0>         0.0000
     20 H1          1.5080   -1.1948   -2.6288 H         1 <0>         0.0000
     21 H2          0.4693    0.2197   -2.5823 H         1 <0>         0.0000
     22 H3         -4.9262   -1.2516   -2.2232 H         1 <0>         0.0000
     23 H4         -3.6874   -2.4667   -2.6002 H         1 <0>         0.0000
     24 H5         -0.8699   -1.8879   -2.9992 H         1 <0>         0.0000
     25 H6         -0.1991   -2.5610   -1.5216 H         1 <0>         0.0000
     26 H7         -2.5254   -0.3381   -3.0997 H         1 <0>         0.0000
     27 H8         -3.2590    0.4183   -1.6850 H         1 <0>         0.0000
     28 H9          1.6239   -1.3548   -0.2313 H         1 <0>         0.0000
     29 H10         2.0406    0.3093   -0.6941 H         1 <0>         0.0000
     30 H11        -4.3214   -1.3083    0.1721 H         1 <0>         0.0000
     31 H12        -4.2132   -3.0116   -0.2800 H         1 <0>         0.0000
     32 H13        -1.1225    1.0976   -1.1145 H         1 <0>         0.0000
     33 H14        -1.8709    0.5189    0.3757 H         1 <0>         0.0000
     34 H15        -1.3026   -5.3859    0.6093 H         1 <0>         0.0000
     35 H16        -2.7193   -4.8845   -0.3576 H         1 <0>         0.0000
     36 H17        -1.0578   -4.5771   -0.9742 H         1 <0>         0.0000
     37 H18         1.5612   -1.3821    2.1630 H         1 <0>         0.0000
     38 H19         2.4172    0.0511    1.5888 H         1 <0>         0.0000
@<TRIPOS>BOND
     1    1   12 1
     2    1   13 3
     3    2   12 1
     4    2   14 am
     5    2   16 2
     6    3    5 1
     7    3    7 1
     8    3   20 1
     9    3   21 1
    10    4    6 1
    11    4    8 1
    12    4   22 1
    13    4   23 1
    14    5   10 1
    15    5   24 1
    16    5   25 1
    17    6   10 1
    18    6   26 1
    19    6   27 1
    20    7   14 1
    21    7   28 1
    22    7   29 1
    23    8   15 1
    24    8   30 1
    25    8   31 1
    26    9   10 1
    27    9   14 1
    28    9   32 1
    29    9   33 1
    30   10   15 1
    31   11   19 1
    32   11   34 1
    33   11   35 1
    34   11   36 1
    35   12   37 1
    36   12   38 1
    37   15   19 1
    38   17   19 2
    39   18   19 2
