@<TRIPOS>MOLECULE
*****
   38    39     0     0     0
SMALL
NO_CHARGES

@<TRIPOS>ATOM
      1 C1         -4.4168    1.9331   -0.2419 C.1       1 <0>         0.0000
      2 C2         -2.3126    0.6083   -0.4422 C.2       1 <0>         0.0000
      3 C3         -0.2839   -0.2306    2.2434 C.3       1 <0>         0.0000
      4 C4          2.4567    1.8913   -0.2614 C.3       1 <0>         0.0000
      5 C5          1.0428   -0.4746    1.5067 C.3       1 <0>         0.0000
      6 C6          0.9791    1.5013   -0.1339 C.3       1 <0>         0.0000
      7 C7         -1.4671   -0.8199    1.4657 C.3       1 <0>         0.0000
      8 C8          3.0383    0.7692   -1.1220 C.3       1 <0>         0.0000
      9 C9         -0.2476   -0.6769   -0.6487 C.3       1 <0>         0.0000
     10 C10         0.9846   -0.0407    0.0253 C.3       1 <0>         0.0000
     11 C11         2.1624   -2.1367   -2.8298 C.3       1 <0>         0.0000
     12 C12        -3.5301    0.9790    0.4294 C.3       1 <0>         0.0000
     13 N1         -5.1570    2.6898   -0.7199 N.1       1 <0>         0.0000
     14 N2         -1.4626   -0.3219    0.0873 N.am      1 <0>         0.0000
     15 N3          2.2519   -0.4015   -0.6792 N.pl3     1 <0>         0.0000
     16 O1         -2.1514    1.1187   -1.5472 O.2       1 <0>         0.0000
     17 O2          1.9679   -2.8801   -0.2990 O.2       1 <0>         0.0000
     18 O3          4.1845   -1.9437   -1.1626 O.2       1 <0>         0.0000
     19 S1          2.7204   -1.9257   -1.1226 S.o2      1 <0>         0.0000
     20 H1         -0.2422   -0.6846    3.2396 H         1 <0>         0.0000
     21 H2         -0.4554    0.8426    2.3898 H         1 <0>         0.0000
     22 H3          2.5941    2.8750   -0.7171 H         1 <0>         0.0000
     23 H4          2.9447    1.8976    0.7180 H         1 <0>         0.0000
     24 H5          1.8585    0.0579    2.0067 H         1 <0>         0.0000
     25 H6          1.2883   -1.5390    1.5386 H         1 <0>         0.0000
     26 H7          0.4855    1.9947    0.7056 H         1 <0>         0.0000
     27 H8          0.4340    1.7760   -1.0413 H         1 <0>         0.0000
     28 H9         -1.3820   -1.9131    1.4283 H         1 <0>         0.0000
     29 H10        -2.4122   -0.5893    1.9556 H         1 <0>         0.0000
     30 H11         2.8775    0.9720   -2.1903 H         1 <0>         0.0000
     31 H12         4.1013    0.5928   -0.9553 H         1 <0>         0.0000
     32 H13        -0.3515   -0.3279   -1.6752 H         1 <0>         0.0000
     33 H14        -0.1562   -1.7670   -0.6378 H         1 <0>         0.0000
     34 H15         2.5247   -3.1105   -3.1648 H         1 <0>         0.0000
     35 H16         1.0734   -2.1026   -2.8567 H         1 <0>         0.0000
     36 H17         2.5976   -1.3436   -3.4398 H         1 <0>         0.0000
     37 H18        -4.1100    0.0851    0.6810 H         1 <0>         0.0000
     38 H19        -3.2019    1.4246    1.3743 H         1 <0>         0.0000
@<TRIPOS>BOND
     1    1   12 1
     2    1   13 3
     3    2   12 1
     4    2   14 am
     5    2   16 2
     6    3    5 1
     7    3    7 1
     8    3   20 1
     9    3   21 1
    10    4    6 1
    11    4    8 1
    12    4   22 1
    13    4   23 1
    14    5   10 1
    15    5   24 1
    16    5   25 1
    17    6   10 1
    18    6   26 1
    19    6   27 1
    20    7   14 1
    21    7   28 1
    22    7   29 1
    23    8   15 1
    24    8   30 1
    25    8   31 1
    26    9   10 1
    27    9   14 1
    28    9   32 1
    29    9   33 1
    30   10   15 1
    31   11   19 1
    32   11   34 1
    33   11   35 1
    34   11   36 1
    35   12   37 1
    36   12   38 1
    37   15   19 1
    38   17   19 2
    39   18   19 2
