@<TRIPOS>MOLECULE
*****
   40    42     0     0     0
SMALL
NO_CHARGES

@<TRIPOS>ATOM
      1 C1          2.3532   -5.4559    2.0736 C.ar      1 <0>         0.0000
      2 C2          1.7857   -6.2932    1.0980 C.ar      1 <0>         0.0000
      3 C3          2.2481   -4.0806    1.9552 C.ar      1 <0>         0.0000
      4 C4          1.1347   -5.6632    0.0433 C.ar      1 <0>         0.0000
      5 C5          1.5605   -3.5432    0.8301 C.ar      1 <0>         0.0000
      6 C6          0.2062    0.7852   -1.1409 C.2       1 <0>         0.0000
      7 C7         -1.2662    1.1938    1.4340 C.3       1 <0>         0.0000
      8 C8         -0.9392   -0.1922    0.8618 C.3       1 <0>         0.0000
      9 C9          1.6137    0.1300    0.8706 C.3       1 <0>         0.0000
     10 C10        -0.8150    2.3373    0.4972 C.3       1 <0>         0.0000
     11 C11         1.9470   -1.1965    1.5677 C.3       1 <0>         0.0000
     12 C12         0.6714   -1.6173   -0.4675 C.3       1 <0>         0.0000
     13 C13         0.3531   -0.1954    0.0260 C.3       1 <0>         0.0000
     14 C14        -0.6556    2.9282   -1.9097 C.3       1 <0>         0.0000
     15 C15         0.4802   -6.4695   -1.0648 C.3       1 <0>         0.0000
     16 N1          1.0166   -4.3426   -0.1078 N.ar      1 <0>         0.0000
     17 N2          1.4162   -2.2012    0.6542 N.pl3     1 <0>         0.0000
     18 N3         -0.5520    1.9010   -0.8781 N.am      1 <0>         0.0000
     19 O1          0.7146    0.5734   -2.2431 O.2       1 <0>         0.0000
     20 F1          0.6237   -7.8058   -0.8674 F         1 <0>         0.0000
     21 F2         -0.8489   -6.2214   -1.1452 F         1 <0>         0.0000
     22 F3          1.0139   -6.1868   -2.2750 F         1 <0>         0.0000
     23 H1          2.8747   -5.8861    2.9248 H         1 <0>         0.0000
     24 H2          1.8497   -7.3724    1.1598 H         1 <0>         0.0000
     25 H3          2.6793   -3.4286    2.7065 H         1 <0>         0.0000
     26 H4         -2.3430    1.2614    1.6134 H         1 <0>         0.0000
     27 H5         -0.7825    1.3310    2.4060 H         1 <0>         0.0000
     28 H6         -0.8727   -0.9316    1.6666 H         1 <0>         0.0000
     29 H7         -1.7540   -0.5206    0.2084 H         1 <0>         0.0000
     30 H8          1.4694    0.9435    1.5851 H         1 <0>         0.0000
     31 H9          2.4287    0.4112    0.1968 H         1 <0>         0.0000
     32 H10        -1.5882    3.1085    0.4476 H         1 <0>         0.0000
     33 H11         0.0823    2.8290    0.9000 H         1 <0>         0.0000
     34 H12         3.0274   -1.3137    1.7160 H         1 <0>         0.0000
     35 H13         1.4675   -1.2683    2.5552 H         1 <0>         0.0000
     36 H14        -0.2261   -2.2032   -0.6735 H         1 <0>         0.0000
     37 H15         1.2739   -1.5911   -1.3797 H         1 <0>         0.0000
     38 H16        -1.6512    3.3813   -1.8722 H         1 <0>         0.0000
     39 H17        -0.4962    2.4689   -2.8840 H         1 <0>         0.0000
     40 H18         0.0962    3.7168   -1.7678 H         1 <0>         0.0000
@<TRIPOS>BOND
     1    1    2 ar
     2    1    3 ar
     3    1   23 1
     4    2    4 ar
     5    2   24 1
     6    3    5 ar
     7    3   25 1
     8    4   15 1
     9    4   16 ar
    10    5   16 ar
    11    5   17 1
    12    6   13 1
    13    6   18 am
    14    6   19 2
    15    7    8 1
    16    7   10 1
    17    7   26 1
    18    7   27 1
    19    8   13 1
    20    8   28 1
    21    8   29 1
    22    9   11 1
    23    9   13 1
    24    9   30 1
    25    9   31 1
    26   10   18 1
    27   10   32 1
    28   10   33 1
    29   11   17 1
    30   11   34 1
    31   11   35 1
    32   12   13 1
    33   12   17 1
    34   12   36 1
    35   12   37 1
    36   14   18 1
    37   14   38 1
    38   14   39 1
    39   14   40 1
    40   15   20 1
    41   15   21 1
    42   15   22 1
