@<TRIPOS>MOLECULE
*****
   51    54     0     0     0
SMALL
NO_CHARGES

@<TRIPOS>ATOM
      1 C1         -3.1500    2.2796   -3.2361 C.1       1 <0>         0.0000
      2 C2         -1.8584    4.2093   -3.9032 C.ar      1 <0>         0.0000
      3 C3         -1.8987    2.9716   -3.2371 C.ar      1 <0>         0.0000
      4 C4         -0.7029    4.9777   -3.9509 C.ar      1 <0>         0.0000
      5 C5          0.4283    4.4448   -3.2907 C.ar      1 <0>         0.0000
      6 C6         -0.6992    2.5131   -2.6083 C.ar      1 <0>         0.0000
      7 C7         -0.2503    0.3204    1.0600 C.2       1 <0>         0.0000
      8 C8          1.2014   -2.1920    0.8886 C.3       1 <0>         0.0000
      9 C9         -3.1393   -0.3501    3.1482 C.3       1 <0>         0.0000
     10 C10        -2.9117   -0.0378    4.6129 C.3       1 <0>         0.0000
     11 C11         1.5136   -1.0947   -0.1244 C.3       1 <0>         0.0000
     12 C12        -0.8654   -0.8198   -1.0617 C.3       1 <0>         0.0000
     13 C13         0.9217   -1.5683    2.2501 C.3       1 <0>         0.0000
     14 C14        -1.6210    0.3505   -1.6936 C.3       1 <0>         0.0000
     15 C15         0.6494    1.0582   -1.1693 C.3       1 <0>         0.0000
     16 C16        -1.8369   -0.7408    3.8112 C.3       1 <0>         0.0000
     17 C17         0.3102   -0.1608   -0.2881 C.3       1 <0>         0.0000
     18 C18        -0.6591    6.3084   -4.6617 C.3       1 <0>         0.0000
     19 C19         1.7329    5.2021   -3.2722 C.3       1 <0>         0.0000
     20 C20        -0.5717    0.0118    3.4554 C.3       1 <0>         0.0000
     21 N1         -4.2019    1.7744   -3.2820 N.1       1 <0>         0.0000
     22 N2          0.4211    3.2709   -2.6589 N.ar      1 <0>         0.0000
     23 N3         -0.5650    1.3336   -1.9454 N.pl3     1 <0>         0.0000
     24 N4          0.0100   -0.4235    2.1785 N.am      1 <0>         0.0000
     25 O1         -0.9680    1.3270    1.1025 O.2       1 <0>         0.0000
     26 H1         -2.7683    4.5615   -4.3825 H         1 <0>         0.0000
     27 H2          0.3333   -2.7719    0.5566 H         1 <0>         0.0000
     28 H3          2.0386   -2.8909    0.9861 H         1 <0>         0.0000
     29 H4         -3.8425   -1.1400    2.9001 H         1 <0>         0.0000
     30 H5         -3.1044    0.4731    2.4420 H         1 <0>         0.0000
     31 H6         -2.7400    0.9998    4.8864 H         1 <0>         0.0000
     32 H7         -3.4562   -0.6133    5.3558 H         1 <0>         0.0000
     33 H8          2.3843   -0.5188    0.2171 H         1 <0>         0.0000
     34 H9          1.7778   -1.5206   -1.0989 H         1 <0>         0.0000
     35 H10        -1.5166   -1.4262   -0.4279 H         1 <0>         0.0000
     36 H11        -0.4519   -1.4672   -1.8433 H         1 <0>         0.0000
     37 H12         0.4821   -2.3127    2.9230 H         1 <0>         0.0000
     38 H13         1.8669   -1.2416    2.7100 H         1 <0>         0.0000
     39 H14        -2.1162    0.0542   -2.6197 H         1 <0>         0.0000
     40 H15        -2.3711    0.7548   -1.0075 H         1 <0>         0.0000
     41 H16         0.9322    1.9305   -0.5783 H         1 <0>         0.0000
     42 H17         1.4843    0.8259   -1.8416 H         1 <0>         0.0000
     43 H18        -1.7022   -1.8003    4.0223 H         1 <0>         0.0000
     44 H19        -0.4013    7.1259   -3.9782 H         1 <0>         0.0000
     45 H20         0.0864    6.3160   -5.4655 H         1 <0>         0.0000
     46 H21        -1.6293    6.5438   -5.1078 H         1 <0>         0.0000
     47 H22         1.6112    6.1850   -2.8022 H         1 <0>         0.0000
     48 H23         2.4820    4.6349   -2.7183 H         1 <0>         0.0000
     49 H24         2.1007    5.3804   -4.2894 H         1 <0>         0.0000
     50 H25         0.1876   -0.1257    4.2352 H         1 <0>         0.0000
     51 H26        -0.7835    1.0786    3.3742 H         1 <0>         0.0000
@<TRIPOS>BOND
     1    1    3 1
     2    1   21 3
     3    2    3 ar
     4    2    4 ar
     5    2   26 1
     6    3    6 ar
     7    4    5 ar
     8    4   18 1
     9    5   19 1
    10    5   22 ar
    11    6   22 ar
    12    6   23 1
    13    7   17 1
    14    7   24 am
    15    7   25 2
    16    8   11 1
    17    8   13 1
    18    8   27 1
    19    8   28 1
    20    9   10 1
    21    9   16 1
    22    9   29 1
    23    9   30 1
    24   10   16 1
    25   10   31 1
    26   10   32 1
    27   11   17 1
    28   11   33 1
    29   11   34 1
    30   12   14 1
    31   12   17 1
    32   12   35 1
    33   12   36 1
    34   13   24 1
    35   13   37 1
    36   13   38 1
    37   14   23 1
    38   14   39 1
    39   14   40 1
    40   15   17 1
    41   15   23 1
    42   15   41 1
    43   15   42 1
    44   16   20 1
    45   16   43 1
    46   18   44 1
    47   18   45 1
    48   18   46 1
    49   19   47 1
    50   19   48 1
    51   19   49 1
    52   20   24 1
    53   20   50 1
    54   20   51 1
