@<TRIPOS>MOLECULE
*****
   51    54     0     0     0
SMALL
NO_CHARGES

@<TRIPOS>ATOM
      1 C1         -2.1903   -3.2526   -3.4907 C.1       1 <0>         0.0000
      2 C2         -3.5495   -1.5781   -4.5802 C.ar      1 <0>         0.0000
      3 C3         -2.5282   -1.8734   -3.6607 C.ar      1 <0>         0.0000
      4 C4         -3.9798   -0.2766   -4.8049 C.ar      1 <0>         0.0000
      5 C5         -3.3359    0.7318   -4.0524 C.ar      1 <0>         0.0000
      6 C6         -1.9256   -0.7817   -2.9606 C.ar      1 <0>         0.0000
      7 C7         -0.3964   -0.5205    1.0282 C.2       1 <0>         0.0000
      8 C8          1.1615    1.9174    0.7828 C.3       1 <0>         0.0000
      9 C9         -2.8901    2.1895    3.3718 C.3       1 <0>         0.0000
     10 C10        -3.4462    1.0707    4.2310 C.3       1 <0>         0.0000
     11 C11         1.6542    0.6548    0.0812 C.3       1 <0>         0.0000
     12 C12         0.9376   -1.6336   -0.8016 C.3       1 <0>         0.0000
     13 C13         0.5421    1.5515    2.1262 C.3       1 <0>         0.0000
     14 C14        -0.2225   -2.1317   -1.6686 C.3       1 <0>         0.0000
     15 C15        -0.4424    0.2786   -1.3280 C.3       1 <0>         0.0000
     16 C16        -2.6036    0.7445    3.0208 C.3       1 <0>         0.0000
     17 C17         0.4785   -0.2824   -0.2125 C.3       1 <0>         0.0000
     18 C18        -5.0769    0.0411   -5.7915 C.3       1 <0>         0.0000
     19 C19        -3.7354    2.1782   -4.2076 C.3       1 <0>         0.0000
     20 C20        -1.2208    0.1572    3.2072 C.3       1 <0>         0.0000
     21 N1         -1.9743   -4.3974   -3.4112 N.1       1 <0>         0.0000
     22 N2         -2.3570    0.4826   -3.1812 N.ar      1 <0>         0.0000
     23 N3         -0.9141   -0.8965   -2.0601 N.pl3     1 <0>         0.0000
     24 N4         -0.3481    0.3894    2.0485 N.am      1 <0>         0.0000
     25 O1         -1.1606   -1.4918    1.0747 O.2       1 <0>         0.0000
     26 H1         -4.0086   -2.4047   -5.1165 H         1 <0>         0.0000
     27 H2          1.9810    2.6233    0.9536 H         1 <0>         0.0000
     28 H3          0.4219    2.4279    0.1559 H         1 <0>         0.0000
     29 H4         -3.5776    2.7463    2.7419 H         1 <0>         0.0000
     30 H5         -2.0854    2.7871    3.7926 H         1 <0>         0.0000
     31 H6         -3.0036    0.9237    5.2130 H         1 <0>         0.0000
     32 H7         -4.5111    0.8638    4.1856 H         1 <0>         0.0000
     33 H8          2.1671    0.8995   -0.8556 H         1 <0>         0.0000
     34 H9          2.3840    0.1395    0.7195 H         1 <0>         0.0000
     35 H10         1.2022   -2.3572   -0.0282 H         1 <0>         0.0000
     36 H11         1.8222   -1.4559   -1.4231 H         1 <0>         0.0000
     37 H12         1.3387    1.3375    2.8549 H         1 <0>         0.0000
     38 H13        -0.0338    2.3957    2.5176 H         1 <0>         0.0000
     39 H14         0.1341   -2.6735   -2.5476 H         1 <0>         0.0000
     40 H15        -0.8883   -2.7796   -1.0960 H         1 <0>         0.0000
     41 H16        -1.2882    0.8503   -0.9408 H         1 <0>         0.0000
     42 H17         0.1203    0.9487   -1.9919 H         1 <0>         0.0000
     43 H18        -3.1310    0.3397    2.1613 H         1 <0>         0.0000
     44 H19        -5.9307    0.5293   -5.3071 H         1 <0>         0.0000
     45 H20        -4.7294    0.7154   -6.5831 H         1 <0>         0.0000
     46 H21        -5.4453   -0.8699   -6.2711 H         1 <0>         0.0000
     47 H22        -4.7946    2.3233   -3.9651 H         1 <0>         0.0000
     48 H23        -3.1317    2.8021   -3.5472 H         1 <0>         0.0000
     49 H24        -3.5979    2.5172   -5.2411 H         1 <0>         0.0000
     50 H25        -1.2968   -0.9208    3.3625 H         1 <0>         0.0000
     51 H26        -0.7353    0.5966    4.0860 H         1 <0>         0.0000
@<TRIPOS>BOND
     1    1    3 1
     2    1   21 3
     3    2    3 ar
     4    2    4 ar
     5    2   26 1
     6    3    6 ar
     7    4    5 ar
     8    4   18 1
     9    5   19 1
    10    5   22 ar
    11    6   22 ar
    12    6   23 1
    13    7   17 1
    14    7   24 am
    15    7   25 2
    16    8   11 1
    17    8   13 1
    18    8   27 1
    19    8   28 1
    20    9   10 1
    21    9   16 1
    22    9   29 1
    23    9   30 1
    24   10   16 1
    25   10   31 1
    26   10   32 1
    27   11   17 1
    28   11   33 1
    29   11   34 1
    30   12   14 1
    31   12   17 1
    32   12   35 1
    33   12   36 1
    34   13   24 1
    35   13   37 1
    36   13   38 1
    37   14   23 1
    38   14   39 1
    39   14   40 1
    40   15   17 1
    41   15   23 1
    42   15   41 1
    43   15   42 1
    44   16   20 1
    45   16   43 1
    46   18   44 1
    47   18   45 1
    48   18   46 1
    49   19   47 1
    50   19   48 1
    51   19   49 1
    52   20   24 1
    53   20   50 1
    54   20   51 1
