@<TRIPOS>MOLECULE
*****
   51    54     0     0     0
SMALL
NO_CHARGES

@<TRIPOS>ATOM
      1 C1         -1.7927   -3.0419   -3.4038 C.1       1 <0>         0.0000
      2 C2         -1.3670   -2.5088   -5.7270 C.ar      1 <0>         0.0000
      3 C3         -1.0707   -2.2772   -4.3725 C.ar      1 <0>         0.0000
      4 C4         -0.6672   -1.8761   -6.7464 C.ar      1 <0>         0.0000
      5 C5          0.3697   -1.0026   -6.3443 C.ar      1 <0>         0.0000
      6 C6         -0.0355   -1.3398   -4.0674 C.ar      1 <0>         0.0000
      7 C7          0.1443   -0.7349    0.8511 C.2       1 <0>         0.0000
      8 C8         -0.4526    2.0590    0.4123 C.3       1 <0>         0.0000
      9 C9          2.2370   -0.7241    3.8234 C.3       1 <0>         0.0000
     10 C10         1.4625   -0.9688    5.1021 C.3       1 <0>         0.0000
     11 C11        -0.7248    1.0940   -0.7368 C.3       1 <0>         0.0000
     12 C12         1.5713    0.0275   -1.0757 C.3       1 <0>         0.0000
     13 C13        -0.8607    1.4038    1.7243 C.3       1 <0>         0.0000
     14 C14         1.4721   -0.0664   -2.6003 C.3       1 <0>         0.0000
     15 C15        -0.3722   -1.2783   -1.5618 C.3       1 <0>         0.0000
     16 C16         0.9041   -0.0436    4.0416 C.3       1 <0>         0.0000
     17 C17         0.1156   -0.1864   -0.5854 C.3       1 <0>         0.0000
     18 C18        -0.9813   -2.1244   -8.2016 C.3       1 <0>         0.0000
     19 C19         1.2172   -0.2940   -7.3714 C.3       1 <0>         0.0000
     20 C20        -0.2974   -0.4905    3.2343 C.3       1 <0>         0.0000
     21 N1         -2.4098   -3.7068   -2.6685 N.1       1 <0>         0.0000
     22 N2          0.6601   -0.7504   -5.0670 N.ar      1 <0>         0.0000
     23 N3          0.3385   -0.9761   -2.8113 N.pl3     1 <0>         0.0000
     24 N4         -0.3108    0.0542    1.8700 N.am      1 <0>         0.0000
     25 O1          0.6070   -1.8623    1.0596 O.2       1 <0>         0.0000
     26 H1         -2.1574   -3.2162   -5.9645 H         1 <0>         0.0000
     27 H2          0.6093    2.3273    0.4467 H         1 <0>         0.0000
     28 H3         -1.0170    2.9890    0.2877 H         1 <0>         0.0000
     29 H4          3.1351   -0.1157    3.8815 H         1 <0>         0.0000
     30 H5          2.2661   -1.5198    3.0862 H         1 <0>         0.0000
     31 H6          0.9877   -1.9383    5.2266 H         1 <0>         0.0000
     32 H7          1.8315   -0.5282    6.0237 H         1 <0>         0.0000
     33 H8         -1.7904    0.8321   -0.7350 H         1 <0>         0.0000
     34 H9         -0.5219    1.5634   -1.7049 H         1 <0>         0.0000
     35 H10         2.1946   -0.7795   -0.6831 H         1 <0>         0.0000
     36 H11         1.9954    0.9802   -0.7482 H         1 <0>         0.0000
     37 H12        -0.5129    2.0046    2.5715 H         1 <0>         0.0000
     38 H13        -1.9580    1.3569    1.7938 H         1 <0>         0.0000
     39 H14         1.2760    0.9037   -3.0713 H         1 <0>         0.0000
     40 H15         2.3800   -0.4650   -3.0602 H         1 <0>         0.0000
     41 H16        -0.1160   -2.2700   -1.1818 H         1 <0>         0.0000
     42 H17        -1.4529   -1.2276   -1.7058 H         1 <0>         0.0000
     43 H18         0.9379    1.0194    4.2741 H         1 <0>         0.0000
     44 H19        -1.2645   -1.2005   -8.7195 H         1 <0>         0.0000
     45 H20        -0.1208   -2.5412   -8.7380 H         1 <0>         0.0000
     46 H21        -1.8101   -2.8299   -8.3065 H         1 <0>         0.0000
     47 H22         0.6025    0.3412   -8.0198 H         1 <0>         0.0000
     48 H23         1.9630    0.3259   -6.8722 H         1 <0>         0.0000
     49 H24         1.7286   -1.0113   -8.0237 H         1 <0>         0.0000
     50 H25        -1.2259   -0.1777    3.7278 H         1 <0>         0.0000
     51 H26        -0.3077   -1.5779    3.1531 H         1 <0>         0.0000
@<TRIPOS>BOND
     1    1    3 1
     2    1   21 3
     3    2    3 ar
     4    2    4 ar
     5    2   26 1
     6    3    6 ar
     7    4    5 ar
     8    4   18 1
     9    5   19 1
    10    5   22 ar
    11    6   22 ar
    12    6   23 1
    13    7   17 1
    14    7   24 am
    15    7   25 2
    16    8   11 1
    17    8   13 1
    18    8   27 1
    19    8   28 1
    20    9   10 1
    21    9   16 1
    22    9   29 1
    23    9   30 1
    24   10   16 1
    25   10   31 1
    26   10   32 1
    27   11   17 1
    28   11   33 1
    29   11   34 1
    30   12   14 1
    31   12   17 1
    32   12   35 1
    33   12   36 1
    34   13   24 1
    35   13   37 1
    36   13   38 1
    37   14   23 1
    38   14   39 1
    39   14   40 1
    40   15   17 1
    41   15   23 1
    42   15   41 1
    43   15   42 1
    44   16   20 1
    45   16   43 1
    46   18   44 1
    47   18   45 1
    48   18   46 1
    49   19   47 1
    50   19   48 1
    51   19   49 1
    52   20   24 1
    53   20   50 1
    54   20   51 1
