@<TRIPOS>MOLECULE
*****
   51    54     0     0     0
SMALL
NO_CHARGES

@<TRIPOS>ATOM
      1 C1         -0.9919   -3.2340   -2.9413 C.1       1 <0>         0.0000
      2 C2         -1.1449   -2.4570   -5.2297 C.ar      1 <0>         0.0000
      3 C3         -0.8180   -2.1795   -3.8909 C.ar      1 <0>         0.0000
      4 C4         -0.9371   -1.5270   -6.2402 C.ar      1 <0>         0.0000
      5 C5         -0.3621   -0.2958   -5.8485 C.ar      1 <0>         0.0000
      6 C6         -0.2847   -0.8882   -3.5891 C.ar      1 <0>         0.0000
      7 C7          0.2078   -0.4897    1.3311 C.2       1 <0>         0.0000
      8 C8         -1.6283    1.7543    1.2003 C.3       1 <0>         0.0000
      9 C9          1.3916    1.7989    4.0954 C.3       1 <0>         0.0000
     10 C10         2.4077    0.7220    3.7740 C.3       1 <0>         0.0000
     11 C11        -1.5766    0.8099    0.0037 C.3       1 <0>         0.0000
     12 C12         0.8950    0.9187   -0.6320 C.3       1 <0>         0.0000
     13 C13        -1.5118    0.9432    2.4820 C.3       1 <0>         0.0000
     14 C14         0.6628    0.8611   -2.1439 C.3       1 <0>         0.0000
     15 C15        -0.3054   -1.1033   -1.0694 C.3       1 <0>         0.0000
     16 C16         1.1178    0.3544    4.4656 C.3       1 <0>         0.0000
     17 C17        -0.2419    0.0443   -0.0396 C.3       1 <0>         0.0000
     18 C18        -1.2845   -1.8229   -7.6789 C.3       1 <0>         0.0000
     19 C19        -0.0592    0.7697   -6.8723 C.3       1 <0>         0.0000
     20 C20         0.0576   -0.4884    3.7664 C.3       1 <0>         0.0000
     21 N1         -1.1468   -4.1408   -2.2220 N.1       1 <0>         0.0000
     22 N2         -0.0592    0.0009   -4.5834 N.ar      1 <0>         0.0000
     23 N3          0.0407   -0.4544   -2.3413 N.pl3     1 <0>         0.0000
     24 N4         -0.3607    0.0341    2.4615 N.am      1 <0>         0.0000
     25 O1          1.1142   -1.3258    1.3918 O.2       1 <0>         0.0000
     26 H1         -1.5560   -3.4356   -5.4641 H         1 <0>         0.0000
     27 H2         -0.8162    2.4885    1.1497 H         1 <0>         0.0000
     28 H3         -2.5687    2.3149    1.2168 H         1 <0>         0.0000
     29 H4          1.6100    2.5001    4.8958 H         1 <0>         0.0000
     30 H5          0.8495    2.2267    3.2579 H         1 <0>         0.0000
     31 H6          2.5146    0.4204    2.7376 H         1 <0>         0.0000
     32 H7          3.3256    0.6890    4.3539 H         1 <0>         0.0000
     33 H8         -2.4026    0.0921    0.0847 H         1 <0>         0.0000
     34 H9         -1.7275    1.3518   -0.9356 H         1 <0>         0.0000
     35 H10         1.8560    0.4651   -0.3773 H         1 <0>         0.0000
     36 H11         0.8870    1.9434   -0.2518 H         1 <0>         0.0000
     37 H12        -1.4007    1.6029    3.3475 H         1 <0>         0.0000
     38 H13        -2.4313    0.3588    2.6388 H         1 <0>         0.0000
     39 H14        -0.0025    1.6564   -2.4992 H         1 <0>         0.0000
     40 H15         1.5895    0.9422   -2.7178 H         1 <0>         0.0000
     41 H16         0.4082   -1.8882   -0.8088 H         1 <0>         0.0000
     42 H17        -1.3043   -1.5408   -1.1145 H         1 <0>         0.0000
     43 H18         1.2021    0.1206    5.5252 H         1 <0>         0.0000
     44 H19        -2.0164   -1.1093   -8.0750 H         1 <0>         0.0000
     45 H20        -0.4031   -1.7715   -8.3288 H         1 <0>         0.0000
     46 H21        -1.7114   -2.8246   -7.7786 H         1 <0>         0.0000
     47 H22        -0.9688    1.0807   -7.3993 H         1 <0>         0.0000
     48 H23         0.3816    1.6390   -6.3829 H         1 <0>         0.0000
     49 H24         0.6365    0.3984   -7.6337 H         1 <0>         0.0000
     50 H25        -0.8380   -0.5441    4.3962 H         1 <0>         0.0000
     51 H26         0.4320   -1.5032    3.6198 H         1 <0>         0.0000
@<TRIPOS>BOND
     1    1    3 1
     2    1   21 3
     3    2    3 ar
     4    2    4 ar
     5    2   26 1
     6    3    6 ar
     7    4    5 ar
     8    4   18 1
     9    5   19 1
    10    5   22 ar
    11    6   22 ar
    12    6   23 1
    13    7   17 1
    14    7   24 am
    15    7   25 2
    16    8   11 1
    17    8   13 1
    18    8   27 1
    19    8   28 1
    20    9   10 1
    21    9   16 1
    22    9   29 1
    23    9   30 1
    24   10   16 1
    25   10   31 1
    26   10   32 1
    27   11   17 1
    28   11   33 1
    29   11   34 1
    30   12   14 1
    31   12   17 1
    32   12   35 1
    33   12   36 1
    34   13   24 1
    35   13   37 1
    36   13   38 1
    37   14   23 1
    38   14   39 1
    39   14   40 1
    40   15   17 1
    41   15   23 1
    42   15   41 1
    43   15   42 1
    44   16   20 1
    45   16   43 1
    46   18   44 1
    47   18   45 1
    48   18   46 1
    49   19   47 1
    50   19   48 1
    51   19   49 1
    52   20   24 1
    53   20   50 1
    54   20   51 1
