@<TRIPOS>MOLECULE
*****
   46    47     0     0     0
SMALL
NO_CHARGES

@<TRIPOS>ATOM
      1 C1          3.1393    2.9639    1.0889 C.ar      1 <0>         0.0000
      2 C2          3.4899    4.2213    1.5658 C.ar      1 <0>         0.0000
      3 C3          1.9752    2.3754    1.6427 C.ar      1 <0>         0.0000
      4 C4          1.6916    4.2190    2.9791 C.ar      1 <0>         0.0000
      5 C5          2.1476    0.3368    0.2106 C.3       1 <0>         0.0000
      6 C6          0.2573    0.6004    1.7046 C.3       1 <0>         0.0000
      7 C7          1.4003   -1.0111    0.3014 C.3       1 <0>         0.0000
      8 C8         -0.0278   -0.5294    0.6997 C.3       1 <0>         0.0000
      9 C9          1.4385   -1.7773   -1.0244 C.3       1 <0>         0.0000
     10 C10         2.0287   -1.8707    1.4144 C.3       1 <0>         0.0000
     11 C11        -0.9708   -1.5973    1.2478 C.3       1 <0>         0.0000
     12 C12         4.2687    6.2041    0.2087 C.3       1 <0>         0.0000
     13 C13         1.2121    6.2462    4.2766 C.3       1 <0>         0.0000
     14 C14        -0.3264    4.3121    4.3665 C.3       1 <0>         0.0000
     15 C15         4.6854    4.9657    1.0194 C.3       1 <0>         0.0000
     16 N1          2.7781    4.8643    2.5097 N.ar      1 <0>         0.0000
     17 N2          1.2486    3.0101    2.5803 N.ar      1 <0>         0.0000
     18 N3          1.5334    1.1478    1.2580 N.pl3     1 <0>         0.0000
     19 N4          0.9719    4.8414    3.9775 N.pl3     1 <0>         0.0000
     20 O1         -0.5859    0.0355   -0.5060 O.3       1 <0>         0.0000
     21 H1          3.7201    2.4760    0.3160 H         1 <0>         0.0000
     22 H2          3.2211    0.2115    0.3887 H         1 <0>         0.0000
     23 H3          2.0103    0.7968   -0.7765 H         1 <0>         0.0000
     24 H4         -0.5248    1.3666    1.6921 H         1 <0>         0.0000
     25 H5          0.3225    0.2290    2.7350 H         1 <0>         0.0000
     26 H6          0.9025   -2.7290   -0.9429 H         1 <0>         0.0000
     27 H7          2.4752   -2.0074   -1.2956 H         1 <0>         0.0000
     28 H8          0.9863   -1.1997   -1.8320 H         1 <0>         0.0000
     29 H9          1.5010   -2.8214    1.5335 H         1 <0>         0.0000
     30 H10         2.0364   -1.3588    2.3815 H         1 <0>         0.0000
     31 H11         3.0674   -2.1028    1.1569 H         1 <0>         0.0000
     32 H12        -1.1234   -2.3872    0.5070 H         1 <0>         0.0000
     33 H13        -1.9494   -1.1555    1.4712 H         1 <0>         0.0000
     34 H14        -0.5951   -2.0461    2.1705 H         1 <0>         0.0000
     35 H15         3.6674    5.9172   -0.6608 H         1 <0>         0.0000
     36 H16         5.1486    6.7493   -0.1497 H         1 <0>         0.0000
     37 H17         3.6701    6.8779    0.8277 H         1 <0>         0.0000
     38 H18         0.9399    6.4409    5.3189 H         1 <0>         0.0000
     39 H19         0.6157    6.9106    3.6319 H         1 <0>         0.0000
     40 H20         2.2647    6.4777    4.1271 H         1 <0>         0.0000
     41 H21        -0.5747    4.6856    5.3645 H         1 <0>         0.0000
     42 H22        -0.2941    3.2238    4.3869 H         1 <0>         0.0000
     43 H23        -1.1242    4.6196    3.6722 H         1 <0>         0.0000
     44 H24         5.3082    5.2799    1.8647 H         1 <0>         0.0000
     45 H25         5.2870    4.2936    0.3984 H         1 <0>         0.0000
     46 H26        -1.3930    0.5161   -0.2632 H         1 <0>         0.0000
@<TRIPOS>BOND
     1    1    2 ar
     2    1    3 ar
     3    1   21 1
     4    2   15 1
     5    2   16 ar
     6    3   17 ar
     7    3   18 1
     8    4   16 ar
     9    4   17 ar
    10    4   19 1
    11    5    7 1
    12    5   18 1
    13    5   22 1
    14    5   23 1
    15    6    8 1
    16    6   18 1
    17    6   24 1
    18    6   25 1
    19    7    8 1
    20    7    9 1
    21    7   10 1
    22    8   11 1
    23    8   20 1
    24    9   26 1
    25    9   27 1
    26    9   28 1
    27   10   29 1
    28   10   30 1
    29   10   31 1
    30   11   32 1
    31   11   33 1
    32   11   34 1
    33   12   15 1
    34   12   35 1
    35   12   36 1
    36   12   37 1
    37   13   19 1
    38   13   38 1
    39   13   39 1
    40   13   40 1
    41   14   19 1
    42   14   41 1
    43   14   42 1
    44   14   43 1
    45   15   44 1
    46   15   45 1
    47   20   46 1
