@<TRIPOS>MOLECULE
*****
   20    20     0     0     0
SMALL
NO_CHARGES

@<TRIPOS>ATOM
      1 C1          0.6839   -1.3126   -0.0910 C.3       1 <0>         0.0000
      2 C2         -0.2993    0.4549    1.3792 C.3       1 <0>         0.0000
      3 C3         -0.2626   -1.0612    1.1001 C.3       1 <0>         0.0000
      4 C4          0.2886   -1.7829    2.3363 C.3       1 <0>         0.0000
      5 C5         -1.6739   -1.5629    0.7594 C.3       1 <0>         0.0000
      6 O1          0.2815   -0.5892   -1.2575 O.3       1 <0>         0.0000
      7 O2         -0.7146    1.2014    0.2319 O.3       1 <0>         0.0000
      8 P1          0.2851    1.0860   -1.1150 P.3       1 <0>         0.0000
      9 S1          2.1251    1.6887   -0.6089 S.3       1 <0>         0.0000
     10 S2         -0.7090    1.8123   -2.6530 S.2       1 <0>         0.0000
     11 H1          1.7122   -1.0355    0.1774 H         1 <0>         0.0000
     12 H2          0.6651   -2.3732   -0.3701 H         1 <0>         0.0000
     13 H3         -1.0310    0.6757    2.1660 H         1 <0>         0.0000
     14 H4          0.6890    0.8037    1.7072 H         1 <0>         0.0000
     15 H5          0.3416   -2.8659    2.1682 H         1 <0>         0.0000
     16 H6         -0.3546   -1.6143    3.2093 H         1 <0>         0.0000
     17 H7          1.2962   -1.4308    2.5869 H         1 <0>         0.0000
     18 H8         -1.6645   -2.6403    0.5501 H         1 <0>         0.0000
     19 H9         -2.0580   -1.0436   -0.1213 H         1 <0>         0.0000
     20 H10        -2.3630   -1.3850    1.5949 H         1 <0>         0.0000
@<TRIPOS>BOND
     1    1    3 1
     2    1    6 1
     3    1   11 1
     4    1   12 1
     5    2    3 1
     6    2    7 1
     7    2   13 1
     8    2   14 1
     9    3    4 1
    10    3    5 1
    11    4   15 1
    12    4   16 1
    13    4   17 1
    14    5   18 1
    15    5   19 1
    16    5   20 1
    17    6    8 1
    18    7    8 1
    19    8    9 1
    20    8   10 2
