@<TRIPOS>MOLECULE
*****
   46    47     0     0     0
SMALL
NO_CHARGES

@<TRIPOS>ATOM
      1 C1          1.1551    3.0195    0.7058 C.ar      1 <0>         0.0000
      2 C2          1.6638    4.2001    1.2348 C.ar      1 <0>         0.0000
      3 C3          0.2628    2.2858    1.5280 C.ar      1 <0>         0.0000
      4 C4          0.4952    3.8678    3.1727 C.ar      1 <0>         0.0000
      5 C5         -1.2409    0.3465    1.9275 C.3       1 <0>         0.0000
      6 C6          0.0034    0.4686   -0.1486 C.3       1 <0>         0.0000
      7 C7         -1.8753   -0.6316    0.9176 C.3       1 <0>         0.0000
      8 C8         -0.6655   -0.9156   -0.0242 C.3       1 <0>         0.0000
      9 C9         -2.4210   -1.8893    1.6005 C.3       1 <0>         0.0000
     10 C10        -3.0118    0.0813    0.1609 C.3       1 <0>         0.0000
     11 C11        -0.9934   -1.5442   -1.3762 C.3       1 <0>         0.0000
     12 C12         4.0461    5.0232    1.0809 C.3       1 <0>         0.0000
     13 C13         0.5286    5.6238    4.8892 C.3       1 <0>         0.0000
     14 C14        -0.8788    3.6120    5.1859 C.3       1 <0>         0.0000
     15 C15         2.6395    5.0541    0.4598 C.3       1 <0>         0.0000
     16 N1          1.3432    4.6419    2.4641 N.ar      1 <0>         0.0000
     17 N2         -0.0684    2.7164    2.7577 N.ar      1 <0>         0.0000
     18 N3         -0.3092    1.1250    1.1102 N.pl3     1 <0>         0.0000
     19 N4          0.1872    4.2778    4.4521 N.pl3     1 <0>         0.0000
     20 O1          0.2002   -1.7960    0.7208 O.3       1 <0>         0.0000
     21 H1          1.4169    2.6974   -0.2949 H         1 <0>         0.0000
     22 H2         -1.9757    1.0041    2.3972 H         1 <0>         0.0000
     23 H3         -0.7067   -0.1889    2.7209 H         1 <0>         0.0000
     24 H4          1.0864    0.3617   -0.2941 H         1 <0>         0.0000
     25 H5         -0.3894    1.0316   -1.0071 H         1 <0>         0.0000
     26 H6         -2.8592   -2.5767    0.8688 H         1 <0>         0.0000
     27 H7         -3.2114   -1.6165    2.3090 H         1 <0>         0.0000
     28 H8         -1.6371   -2.4214    2.1415 H         1 <0>         0.0000
     29 H9         -3.4685   -0.5707   -0.5897 H         1 <0>         0.0000
     30 H10        -2.6715    0.9940   -0.3383 H         1 <0>         0.0000
     31 H11        -3.7970    0.3691    0.8673 H         1 <0>         0.0000
     32 H12        -1.4838   -2.5115   -1.2356 H         1 <0>         0.0000
     33 H13        -0.0722   -1.7164   -1.9466 H         1 <0>         0.0000
     34 H14        -1.6402   -0.9060   -1.9830 H         1 <0>         0.0000
     35 H15         4.0089    5.3624    2.1196 H         1 <0>         0.0000
     36 H16         4.7315    5.6732    0.5264 H         1 <0>         0.0000
     37 H17         4.4554    4.0072    1.0704 H         1 <0>         0.0000
     38 H18         0.6833    5.6203    5.9731 H         1 <0>         0.0000
     39 H19        -0.2705    6.3446    4.6554 H         1 <0>         0.0000
     40 H20         1.4406    5.9492    4.3932 H         1 <0>         0.0000
     41 H21        -0.7428    3.8032    6.2546 H         1 <0>         0.0000
     42 H22        -0.8430    2.5390    5.0039 H         1 <0>         0.0000
     43 H23        -1.8747    3.9779    4.8911 H         1 <0>         0.0000
     44 H24         2.6805    4.7170   -0.5815 H         1 <0>         0.0000
     45 H25         2.2675    6.0848    0.4594 H         1 <0>         0.0000
     46 H26         1.0210   -1.9073    0.2156 H         1 <0>         0.0000
@<TRIPOS>BOND
     1    1    2 ar
     2    1    3 ar
     3    1   21 1
     4    2   15 1
     5    2   16 ar
     6    3   17 ar
     7    3   18 1
     8    4   16 ar
     9    4   17 ar
    10    4   19 1
    11    5    7 1
    12    5   18 1
    13    5   22 1
    14    5   23 1
    15    6    8 1
    16    6   18 1
    17    6   24 1
    18    6   25 1
    19    7    8 1
    20    7    9 1
    21    7   10 1
    22    8   11 1
    23    8   20 1
    24    9   26 1
    25    9   27 1
    26    9   28 1
    27   10   29 1
    28   10   30 1
    29   10   31 1
    30   11   32 1
    31   11   33 1
    32   11   34 1
    33   12   15 1
    34   12   35 1
    35   12   36 1
    36   12   37 1
    37   13   19 1
    38   13   38 1
    39   13   39 1
    40   13   40 1
    41   14   19 1
    42   14   41 1
    43   14   42 1
    44   14   43 1
    45   15   44 1
    46   15   45 1
    47   20   46 1
