@<TRIPOS>MOLECULE
*****
   46    47     0     0     0
SMALL
NO_CHARGES

@<TRIPOS>ATOM
      1 C1          2.7157    3.8253    0.1391 C.ar      1 <0>         0.0000
      2 C2          3.0963    5.0197    0.7391 C.ar      1 <0>         0.0000
      3 C3          1.6638    3.1070    0.7616 C.ar      1 <0>         0.0000
      4 C4          1.5339    4.7245    2.3829 C.ar      1 <0>         0.0000
      5 C5          0.1235    1.1631    0.8752 C.3       1 <0>         0.0000
      6 C6          1.7779    1.2537   -0.8944 C.3       1 <0>         0.0000
      7 C7         -0.3027    0.1837   -0.2356 C.3       1 <0>         0.0000
      8 C8          1.0721   -0.1112   -0.9239 C.3       1 <0>         0.0000
      9 C9         -0.9798   -1.0667    0.3344 C.3       1 <0>         0.0000
     10 C10        -1.2686    0.8939   -1.2033 C.3       1 <0>         0.0000
     11 C11         1.0043   -0.7177   -2.3241 C.3       1 <0>         0.0000
     12 C12         3.6113    7.2102   -0.4084 C.3       1 <0>         0.0000
     13 C13         1.1958    6.5170    4.0260 C.3       1 <0>         0.0000
     14 C14        -0.2418    4.5044    4.0573 C.3       1 <0>         0.0000
     15 C15         4.1770    5.8910    0.1433 C.3       1 <0>         0.0000
     16 N1          2.5151    5.4871    1.8589 N.ar      1 <0>         0.0000
     17 N2          1.0728    3.5625    1.8803 N.ar      1 <0>         0.0000
     18 N3          1.1932    1.9379    0.2510 N.pl3     1 <0>         0.0000
     19 N4          0.9580    5.1591    3.5580 N.pl3     1 <0>         0.0000
     20 O1          1.8795   -0.9554   -0.0768 O.3       1 <0>         0.0000
     21 H1          3.1958    3.4763   -0.7670 H         1 <0>         0.0000
     22 H2         -0.6875    1.8204    1.1955 H         1 <0>         0.0000
     23 H3          0.4961    0.6289    1.7582 H         1 <0>         0.0000
     24 H4          2.8563    1.1043   -0.7775 H         1 <0>         0.0000
     25 H5          1.6056    1.8119   -1.8242 H         1 <0>         0.0000
     26 H6         -1.2099   -1.7941   -0.4532 H         1 <0>         0.0000
     27 H7         -1.9286   -0.7998    0.8118 H         1 <0>         0.0000
     28 H8         -0.3629   -1.5548    1.0948 H         1 <0>         0.0000
     29 H9         -1.5820    0.2351   -2.0188 H         1 <0>         0.0000
     30 H10        -0.8232    1.7926   -1.6408 H         1 <0>         0.0000
     31 H11        -2.1703    1.2043   -0.6652 H         1 <0>         0.0000
     32 H12         0.4749   -1.6779   -2.3098 H         1 <0>         0.0000
     33 H13         2.0190   -0.8997   -2.6909 H         1 <0>         0.0000
     34 H14         0.4933   -0.0639   -3.0345 H         1 <0>         0.0000
     35 H15         2.8962    7.0207   -1.2164 H         1 <0>         0.0000
     36 H16         4.4130    7.8432   -0.8038 H         1 <0>         0.0000
     37 H17         3.0921    7.7591    0.3819 H         1 <0>         0.0000
     38 H18         1.0969    6.5423    5.1160 H         1 <0>         0.0000
     39 H19         0.4760    7.2309    3.5958 H         1 <0>         0.0000
     40 H20         2.1994    6.8301    3.7454 H         1 <0>         0.0000
     41 H21        -0.3433    4.7222    5.1248 H         1 <0>         0.0000
     42 H22        -0.1654    3.4274    3.9148 H         1 <0>         0.0000
     43 H23        -1.1501    4.8556    3.5429 H         1 <0>         0.0000
     44 H24         4.9093    6.1122    0.9279 H         1 <0>         0.0000
     45 H25         4.6981    5.3436   -0.6492 H         1 <0>         0.0000
     46 H26         1.4836   -1.8410   -0.0711 H         1 <0>         0.0000
@<TRIPOS>BOND
     1    1    2 ar
     2    1    3 ar
     3    1   21 1
     4    2   15 1
     5    2   16 ar
     6    3   17 ar
     7    3   18 1
     8    4   16 ar
     9    4   17 ar
    10    4   19 1
    11    5    7 1
    12    5   18 1
    13    5   22 1
    14    5   23 1
    15    6    8 1
    16    6   18 1
    17    6   24 1
    18    6   25 1
    19    7    8 1
    20    7    9 1
    21    7   10 1
    22    8   11 1
    23    8   20 1
    24    9   26 1
    25    9   27 1
    26    9   28 1
    27   10   29 1
    28   10   30 1
    29   10   31 1
    30   11   32 1
    31   11   33 1
    32   11   34 1
    33   12   15 1
    34   12   35 1
    35   12   36 1
    36   12   37 1
    37   13   19 1
    38   13   38 1
    39   13   39 1
    40   13   40 1
    41   14   19 1
    42   14   41 1
    43   14   42 1
    44   14   43 1
    45   15   44 1
    46   15   45 1
    47   20   46 1
