@<TRIPOS>MOLECULE
*****
   48    50     0     0     0
SMALL
NO_CHARGES

@<TRIPOS>ATOM
      1 C1          0.9439    8.6444   -7.6444 C.ar      1 <0>         0.0000
      2 C2          1.4514    7.5370   -8.3304 C.ar      1 <0>         0.0000
      3 C3          0.3003    8.4286   -6.4188 C.ar      1 <0>         0.0000
      4 C4          0.1479    3.3276   -1.3744 C.ar      1 <0>         0.0000
      5 C5          1.9367    4.8093   -1.9967 C.ar      1 <0>         0.0000
      6 C6         -0.3844    3.4550   -2.6579 C.ar      1 <0>         0.0000
      7 C7          1.4009    4.9397   -3.2835 C.ar      1 <0>         0.0000
      8 C8          1.3132    6.2450   -7.8196 C.ar      1 <0>         0.0000
      9 C9          0.1615    7.1477   -5.8891 C.ar      1 <0>         0.0000
     10 C10         1.3274    4.0091   -1.0187 C.ar      1 <0>         0.0000
     11 C11         0.2273    4.2623   -3.6281 C.ar      1 <0>         0.0000
     12 C12         0.6575    6.0158   -6.5847 C.ar      1 <0>         0.0000
     13 C13        -0.3160    3.8473    1.7898 C.2       1 <0>         0.0000
     14 C14         3.1642    2.3539    1.9862 C.3       1 <0>         0.0000
     15 C15         2.3489    2.9606    3.1384 C.3       1 <0>         0.0000
     16 C16         2.4034    2.4285    0.6536 C.3       1 <0>         0.0000
     17 C17         1.9228    4.3996    2.8120 C.3       1 <0>         0.0000
     18 C18         1.9531    3.8754    0.3559 C.3       1 <0>         0.0000
     19 C19         1.0991    4.4723    1.5081 C.3       1 <0>         0.0000
     20 C20         1.3038    3.6396   -6.6173 C.3       1 <0>         0.0000
     21 C21        -0.4044    4.4098   -5.0023 C.3       1 <0>         0.0000
     22 N1          0.5271    4.7375   -6.0752 N.pl3     1 <0>         0.0000
     23 O1         -0.4868    2.6194    1.5113 O.co2     1 <0>         0.0000
     24 O2         -1.1294    4.6426    2.3265 O.co2     1 <0>         0.0000
     25 H1          1.0540    9.6480   -8.0464 H         1 <0>         0.0000
     26 H2          1.9576    7.6733   -9.2840 H         1 <0>         0.0000
     27 H3         -0.0848    9.2730   -5.8514 H         1 <0>         0.0000
     28 H4         -0.3442    2.7220   -0.6173 H         1 <0>         0.0000
     29 H5          2.8528    5.3428   -1.7471 H         1 <0>         0.0000
     30 H6         -1.2990    2.9171   -2.9086 H         1 <0>         0.0000
     31 H7          1.9010    5.5631   -4.0210 H         1 <0>         0.0000
     32 H8          1.7002    5.4088   -8.3918 H         1 <0>         0.0000
     33 H9         -0.2955    7.0285   -4.9130 H         1 <0>         0.0000
     34 H10         4.1169    2.9002    1.8931 H         1 <0>         0.0000
     35 H11         3.4233    1.3098    2.2099 H         1 <0>         0.0000
     36 H12         1.4508    2.3551    3.3002 H         1 <0>         0.0000
     37 H13         2.9370    2.9395    4.0672 H         1 <0>         0.0000
     38 H14         3.0418    2.0690   -0.1658 H         1 <0>         0.0000
     39 H15         1.5139    1.7972    0.7060 H         1 <0>         0.0000
     40 H16         1.3234    4.8196    3.6267 H         1 <0>         0.0000
     41 H17         2.8260    5.0253    2.7144 H         1 <0>         0.0000
     42 H18         2.8717    4.4846    0.3276 H         1 <0>         0.0000
     43 H19         0.9204    5.5292    1.2798 H         1 <0>         0.0000
     44 H20         1.3050    2.8217   -5.8936 H         1 <0>         0.0000
     45 H21         2.3463    3.9359   -6.7786 H         1 <0>         0.0000
     46 H22         0.9000    3.2612   -7.5705 H         1 <0>         0.0000
     47 H23        -0.9120    3.4723   -5.2656 H         1 <0>         0.0000
     48 H24        -1.1914    5.1696   -4.9844 H         1 <0>         0.0000
@<TRIPOS>BOND
     1    1    3 ar
     2    1    2 ar
     3    1   25 1
     4    2    8 ar
     5    2   26 1
     6    3    9 ar
     7    3   27 1
     8    4    6 ar
     9    4   10 ar
    10    4   28 1
    11    5    7 ar
    12    5   10 ar
    13    5   29 1
    14    6   11 ar
    15    6   30 1
    16    7   11 ar
    17    7   31 1
    18    8   12 ar
    19    8   32 1
    20    9   12 ar
    21    9   33 1
    22   10   18 1
    23   11   21 1
    24   12   22 1
    25   13   19 1
    26   13   23 1
    27   13   24 2
    28   14   15 1
    29   14   16 1
    30   14   34 1
    31   14   35 1
    32   15   17 1
    33   15   36 1
    34   15   37 1
    35   16   18 1
    36   16   38 1
    37   16   39 1
    38   17   19 1
    39   17   40 1
    40   17   41 1
    41   18   19 1
    42   18   42 1
    43   19   43 1
    44   20   22 1
    45   20   44 1
    46   20   45 1
    47   20   46 1
    48   21   22 1
    49   21   47 1
    50   21   48 1
