@<TRIPOS>MOLECULE
*****
   48    50     0     0     0
SMALL
NO_CHARGES

@<TRIPOS>ATOM
      1 C1          4.5831    0.9035   -5.2868 C.ar      1 <0>         0.0000
      2 C2          4.4236    0.7513   -3.9033 C.ar      1 <0>         0.0000
      3 C3          4.4376   -0.2256   -6.0983 C.ar      1 <0>         0.0000
      4 C4          0.2296   -2.2760   -1.1306 C.ar      1 <0>         0.0000
      5 C5          1.1486   -3.7791    0.4937 C.ar      1 <0>         0.0000
      6 C6          1.4172   -2.3340   -1.8709 C.ar      1 <0>         0.0000
      7 C7          2.3318   -3.8363   -0.2417 C.ar      1 <0>         0.0000
      8 C8          4.1311   -0.4885   -3.3393 C.ar      1 <0>         0.0000
      9 C9          4.1531   -1.4777   -5.5503 C.ar      1 <0>         0.0000
     10 C10         0.0658   -2.9783    0.0744 C.ar      1 <0>         0.0000
     11 C11         2.4921   -3.1076   -1.4283 C.ar      1 <0>         0.0000
     12 C12         3.9987   -1.6435   -4.1515 C.ar      1 <0>         0.0000
     13 C13        -0.1840   -3.6040    3.2077 C.2       1 <0>         0.0000
     14 C14        -2.0729   -0.5515    0.5017 C.3       1 <0>         0.0000
     15 C15        -1.7654   -0.2121    1.9688 C.3       1 <0>         0.0000
     16 C16        -2.3337   -2.0572    0.2953 C.3       1 <0>         0.0000
     17 C17        -0.6671   -1.1220    2.5397 C.3       1 <0>         0.0000
     18 C18        -1.2329   -2.9662    0.8850 C.3       1 <0>         0.0000
     19 C19        -1.0552   -2.5937    2.3842 C.3       1 <0>         0.0000
     20 C20         3.2480   -3.9676   -4.4550 C.3       1 <0>         0.0000
     21 C21         3.8099   -3.1591   -2.1829 C.3       1 <0>         0.0000
     22 N1          3.7156   -2.8840   -3.6114 N.pl3     1 <0>         0.0000
     23 O1          0.6551   -3.1109    4.0063 O.co2     1 <0>         0.0000
     24 O2         -0.4469   -4.8246    2.9891 O.co2     1 <0>         0.0000
     25 H1          4.8034    1.8761   -5.7184 H         1 <0>         0.0000
     26 H2          4.5075    1.6160   -3.2486 H         1 <0>         0.0000
     27 H3          4.5527   -0.1384   -7.1770 H         1 <0>         0.0000
     28 H4         -0.5791   -1.6697   -1.5230 H         1 <0>         0.0000
     29 H5          1.0410   -4.3778    1.3918 H         1 <0>         0.0000
     30 H6          1.4992   -1.7753   -2.8002 H         1 <0>         0.0000
     31 H7          3.1446   -4.4686    0.1159 H         1 <0>         0.0000
     32 H8          3.9623   -0.5531   -2.2704 H         1 <0>         0.0000
     33 H9          4.0677   -2.3338   -6.2108 H         1 <0>         0.0000
     34 H10        -2.9413    0.0228    0.1489 H         1 <0>         0.0000
     35 H11        -1.2214   -0.2315   -0.1094 H         1 <0>         0.0000
     36 H12        -1.4840    0.8474    2.0510 H         1 <0>         0.0000
     37 H13        -2.6792   -0.3411    2.5686 H         1 <0>         0.0000
     38 H14        -3.2721   -2.3149    0.8046 H         1 <0>         0.0000
     39 H15        -2.5011   -2.2700   -0.7692 H         1 <0>         0.0000
     40 H16         0.2842   -0.9351    2.0246 H         1 <0>         0.0000
     41 H17        -0.4871   -0.9132    3.5975 H         1 <0>         0.0000
     42 H18        -1.5961   -4.0006    0.8872 H         1 <0>         0.0000
     43 H19        -2.0615   -2.7112    2.8176 H         1 <0>         0.0000
     44 H20         2.7869   -4.7295   -3.8233 H         1 <0>         0.0000
     45 H21         4.0611   -4.4382   -5.0306 H         1 <0>         0.0000
     46 H22         2.4839   -3.6202   -5.1601 H         1 <0>         0.0000
     47 H23         4.5319   -2.4632   -1.7446 H         1 <0>         0.0000
     48 H24         4.2550   -4.1546   -2.0577 H         1 <0>         0.0000
@<TRIPOS>BOND
     1    1    3 ar
     2    1    2 ar
     3    1   25 1
     4    2    8 ar
     5    2   26 1
     6    3    9 ar
     7    3   27 1
     8    4    6 ar
     9    4   10 ar
    10    4   28 1
    11    5    7 ar
    12    5   10 ar
    13    5   29 1
    14    6   11 ar
    15    6   30 1
    16    7   11 ar
    17    7   31 1
    18    8   12 ar
    19    8   32 1
    20    9   12 ar
    21    9   33 1
    22   10   18 1
    23   11   21 1
    24   12   22 1
    25   13   19 1
    26   13   23 1
    27   13   24 2
    28   14   15 1
    29   14   16 1
    30   14   34 1
    31   14   35 1
    32   15   17 1
    33   15   36 1
    34   15   37 1
    35   16   18 1
    36   16   38 1
    37   16   39 1
    38   17   19 1
    39   17   40 1
    40   17   41 1
    41   18   19 1
    42   18   42 1
    43   19   43 1
    44   20   22 1
    45   20   44 1
    46   20   45 1
    47   20   46 1
    48   21   22 1
    49   21   47 1
    50   21   48 1
