@<TRIPOS>MOLECULE
*****
   35    36     0     0     0
SMALL
NO_CHARGES

@<TRIPOS>ATOM
      1 C1         -1.5320    0.3525    3.6506 C.ar      1 <0>         0.0000
      2 C2         -1.5004    0.6758    4.9964 C.ar      1 <0>         0.0000
      3 C3         -0.4490    0.8224    2.8658 C.ar      1 <0>         0.0000
      4 C4          0.4697    1.7812    4.7461 C.ar      1 <0>         0.0000
      5 C5         -1.3484   -0.1736    0.7685 C.3       1 <0>         0.0000
      6 C6          0.8002    0.9720    0.7318 C.3       1 <0>         0.0000
      7 C7         -0.9105    0.0106   -0.6981 C.3       1 <0>         0.0000
      8 C8          0.6475    0.1323   -0.5474 C.3       1 <0>         0.0000
      9 C9          1.6131    2.5484    5.3584 C.3       1 <0>         0.0000
     10 C10        -1.4923    1.3288   -1.2433 C.3       1 <0>         0.0000
     11 C11        -1.3732   -1.1497   -1.5857 C.3       1 <0>         0.0000
     12 C12         1.3448   -1.2228   -0.3779 C.3       1 <0>         0.0000
     13 N1         -0.5149    1.3899    5.5725 N.ar      1 <0>         0.0000
     14 N2          0.5480    1.5373    3.4306 N.ar      1 <0>         0.0000
     15 N3         -0.3597    0.5832    1.5320 N.pl3     1 <0>         0.0000
     16 O1          1.2632    0.8605   -1.6142 O.3       1 <0>         0.0000
     17 H1         -2.3440   -0.2319    3.2336 H         1 <0>         0.0000
     18 H2         -2.3038    0.3479    5.6558 H         1 <0>         0.0000
     19 H3         -2.3598    0.2145    0.9346 H         1 <0>         0.0000
     20 H4         -1.3479   -1.2335    1.0633 H         1 <0>         0.0000
     21 H5          1.7285    0.7622    1.2663 H         1 <0>         0.0000
     22 H6          0.7912    2.0410    0.4932 H         1 <0>         0.0000
     23 H7          2.4055    1.8513    5.6567 H         1 <0>         0.0000
     24 H8          2.0389    3.2468    4.6348 H         1 <0>         0.0000
     25 H9          1.2796    3.0795    6.2518 H         1 <0>         0.0000
     26 H10        -1.1107    1.5423   -2.2444 H         1 <0>         0.0000
     27 H11        -1.2414    2.1813   -0.6065 H         1 <0>         0.0000
     28 H12        -2.5841    1.2584   -1.2956 H         1 <0>         0.0000
     29 H13        -0.9826   -1.0442   -2.6049 H         1 <0>         0.0000
     30 H14        -2.4660   -1.1603   -1.6617 H         1 <0>         0.0000
     31 H15        -1.0597   -2.1237   -1.2001 H         1 <0>         0.0000
     32 H16         1.2472   -1.8426   -1.2759 H         1 <0>         0.0000
     33 H17         0.9348   -1.7883    0.4643 H         1 <0>         0.0000
     34 H18         2.4099   -1.0590   -0.1908 H         1 <0>         0.0000
     35 H19         1.3702    0.2592   -2.3679 H         1 <0>         0.0000
@<TRIPOS>BOND
     1    1    2 ar
     2    1    3 ar
     3    1   17 1
     4    2   13 ar
     5    2   18 1
     6    3   14 ar
     7    3   15 1
     8    4    9 1
     9    4   13 ar
    10    4   14 ar
    11    5    7 1
    12    5   15 1
    13    5   19 1
    14    5   20 1
    15    6    8 1
    16    6   15 1
    17    6   21 1
    18    6   22 1
    19    7    8 1
    20    7   10 1
    21    7   11 1
    22    8   12 1
    23    8   16 1
    24    9   23 1
    25    9   24 1
    26    9   25 1
    27   10   26 1
    28   10   27 1
    29   10   28 1
    30   11   29 1
    31   11   30 1
    32   11   31 1
    33   12   32 1
    34   12   33 1
    35   12   34 1
    36   16   35 1
