@<TRIPOS>MOLECULE
*****
   35    36     0     0     0
SMALL
NO_CHARGES

@<TRIPOS>ATOM
      1 C1          0.9554    1.1131    3.6922 C.ar      1 <0>         0.0000
      2 C2          0.6708    1.3282    5.0295 C.ar      1 <0>         0.0000
      3 C3          0.0147    0.3397    2.9661 C.ar      1 <0>         0.0000
      4 C4         -1.2608    0.1405    4.8717 C.ar      1 <0>         0.0000
      5 C5         -0.8246   -0.6889    0.8701 C.3       1 <0>         0.0000
      6 C6          1.3362    0.4327    0.8611 C.3       1 <0>         0.0000
      7 C7         -0.3990   -0.4436   -0.5899 C.3       1 <0>         0.0000
      8 C8          1.1612   -0.3497   -0.4531 C.3       1 <0>         0.0000
      9 C9         -2.5228   -0.3763    5.5132 C.3       1 <0>         0.0000
     10 C10        -0.9685    0.9051   -1.0695 C.3       1 <0>         0.0000
     11 C11        -0.8839   -1.5566   -1.5249 C.3       1 <0>         0.0000
     12 C12         1.8424   -1.7198   -0.3501 C.3       1 <0>         0.0000
     13 N1         -0.4276    0.8528    5.6478 N.ar      1 <0>         0.0000
     14 N2         -1.0923   -0.1411    3.5718 N.ar      1 <0>         0.0000
     15 N3          0.1739    0.0482    1.6497 N.pl3     1 <0>         0.0000
     16 O1          1.7835    0.4193   -1.4875 O.3       1 <0>         0.0000
     17 H1          1.8468    1.5262    3.2343 H         1 <0>         0.0000
     18 H2          1.3529    1.9130    5.6461 H         1 <0>         0.0000
     19 H3         -1.8289   -0.3175    1.0856 H         1 <0>         0.0000
     20 H4         -0.8121   -1.7549    1.1329 H         1 <0>         0.0000
     21 H5          2.2706    0.1640    1.3651 H         1 <0>         0.0000
     22 H6          1.3604    1.5102    0.6545 H         1 <0>         0.0000
     23 H7         -3.3467    0.3206    5.3184 H         1 <0>         0.0000
     24 H8         -2.8012   -1.3438    5.0890 H         1 <0>         0.0000
     25 H9         -2.3949   -0.4565    6.5940 H         1 <0>         0.0000
     26 H10        -0.5960    1.1610   -2.0643 H         1 <0>         0.0000
     27 H11        -0.7025    1.7250   -0.3965 H         1 <0>         0.0000
     28 H12        -2.0614    0.8499   -1.1112 H         1 <0>         0.0000
     29 H13        -0.5043   -1.4109   -2.5436 H         1 <0>         0.0000
     30 H14        -1.9774   -1.5504   -1.5867 H         1 <0>         0.0000
     31 H15        -0.5798   -2.5507   -1.1862 H         1 <0>         0.0000
     32 H16         1.7282   -2.2947   -1.2752 H         1 <0>         0.0000
     33 H17         1.4302   -2.3179    0.4678 H         1 <0>         0.0000
     34 H18         2.9117   -1.5797   -0.1670 H         1 <0>         0.0000
     35 H19         1.8531   -0.1393   -2.2777 H         1 <0>         0.0000
@<TRIPOS>BOND
     1    1    2 ar
     2    1    3 ar
     3    1   17 1
     4    2   13 ar
     5    2   18 1
     6    3   14 ar
     7    3   15 1
     8    4    9 1
     9    4   13 ar
    10    4   14 ar
    11    5    7 1
    12    5   15 1
    13    5   19 1
    14    5   20 1
    15    6    8 1
    16    6   15 1
    17    6   21 1
    18    6   22 1
    19    7    8 1
    20    7   10 1
    21    7   11 1
    22    8   12 1
    23    8   16 1
    24    9   23 1
    25    9   24 1
    26    9   25 1
    27   10   26 1
    28   10   27 1
    29   10   28 1
    30   11   29 1
    31   11   30 1
    32   11   31 1
    33   12   32 1
    34   12   33 1
    35   12   34 1
    36   16   35 1
