@<TRIPOS>MOLECULE
*****
   59    61     0     0     0
SMALL
NO_CHARGES

@<TRIPOS>ATOM
      1 C1          1.9492    0.5277   -0.4024 C.ar      1 <0>         0.0000
      2 C2         -2.6483    1.0501    3.1655 C.ar      1 <0>         0.0000
      3 C3         -2.0109    3.1948    2.2540 C.ar      1 <0>         0.0000
      4 C4          2.5956   -0.1047   -1.4654 C.ar      1 <0>         0.0000
      5 C5         -3.3220    1.6919    4.2047 C.ar      1 <0>         0.0000
      6 C6         -2.6846    3.8367    3.2931 C.ar      1 <0>         0.0000
      7 C7          0.7622   -1.6585   -1.6596 C.ar      1 <0>         0.0000
      8 C8         -1.9928    1.8015    2.1902 C.ar      1 <0>         0.0000
      9 C9          0.6959    0.0793    0.0472 C.ar      1 <0>         0.0000
     10 C10         0.1003   -1.0346   -0.5909 C.ar      1 <0>         0.0000
     11 C11         2.0027   -1.1950   -2.0937 C.ar      1 <0>         0.0000
     12 C12        -3.3401    3.0853    4.2685 C.ar      1 <0>         0.0000
     13 C13        -1.2806    1.1221    1.0909 C.2       1 <0>         0.0000
     14 C14         0.0262    0.7733    1.1844 C.2       1 <0>         0.0000
     15 C15        -1.2354   -1.5699   -0.1323 C.3       1 <0>         0.0000
     16 C16        -2.1213    0.8668   -0.1428 C.3       1 <0>         0.0000
     17 C17        -2.3986   -0.6161   -0.4204 C.3       1 <0>         0.0000
     18 C18         3.9016   -1.2840   -3.5226 C.3       1 <0>         0.0000
     19 C19        -2.9555    4.0641    6.8469 C.3       1 <0>         0.0000
     20 C20         0.8967    1.0082    2.3946 C.3       1 <0>         0.0000
     21 C21         0.8576   -0.1978    3.3187 C.3       1 <0>         0.0000
     22 C22         1.7785   -0.0426    4.5330 C.3       1 <0>         0.0000
     23 C23         1.6908   -1.2586    5.4535 C.3       1 <0>         0.0000
     24 C24         2.6342   -1.1330    6.6416 C.3       1 <0>         0.0000
     25 O1         -4.5473    5.2211    5.1142 O.2       1 <0>         0.0000
     26 O2         -5.2088    2.9948    6.0899 O.2       1 <0>         0.0000
     27 O3          2.4944   -2.2839    7.4630 O.3       1 <0>         0.0000
     28 O4          2.6343   -1.8095   -3.1311 O.3       1 <0>         0.0000
     29 S1         -4.1819    3.8878    5.5708 S.o2      1 <0>         0.0000
     30 H1          2.4351    1.3843    0.0588 H         1 <0>         0.0000
     31 H2         -2.6427   -0.0369    3.1295 H         1 <0>         0.0000
     32 H3         -1.5045    3.7940    1.5010 H         1 <0>         0.0000
     33 H4          3.5620    0.2629   -1.8001 H         1 <0>         0.0000
     34 H5         -3.8296    1.0969    4.9592 H         1 <0>         0.0000
     35 H6         -2.6924    4.9226    3.3336 H         1 <0>         0.0000
     36 H7          0.3089   -2.5129   -2.1574 H         1 <0>         0.0000
     37 H8         -1.4465   -2.5365   -0.6072 H         1 <0>         0.0000
     38 H9         -1.1790   -1.7868    0.9427 H         1 <0>         0.0000
     39 H10        -3.0817    1.3951   -0.0782 H         1 <0>         0.0000
     40 H11        -1.6183    1.3125   -1.0122 H         1 <0>         0.0000
     41 H12        -2.6934   -0.7135   -1.4733 H         1 <0>         0.0000
     42 H13        -3.2652   -0.9423    0.1686 H         1 <0>         0.0000
     43 H14         4.2952   -1.8655   -4.3599 H         1 <0>         0.0000
     44 H15         4.5927   -1.3290   -2.6771 H         1 <0>         0.0000
     45 H16         3.7749   -0.2438   -3.8321 H         1 <0>         0.0000
     46 H17        -3.4163    4.5631    7.7008 H         1 <0>         0.0000
     47 H18        -2.6058    3.0696    7.1281 H         1 <0>         0.0000
     48 H19        -2.1323    4.6619    6.4529 H         1 <0>         0.0000
     49 H20         0.5504    1.9138    2.8909 H         1 <0>         0.0000
     50 H21         1.9098    1.1665    2.0240 H         1 <0>         0.0000
     51 H22        -0.1687   -0.3847    3.6582 H         1 <0>         0.0000
     52 H23         1.1719   -1.0763    2.7421 H         1 <0>         0.0000
     53 H24         2.8136    0.0865    4.1943 H         1 <0>         0.0000
     54 H25         1.5073    0.8585    5.0953 H         1 <0>         0.0000
     55 H26         0.6637   -1.3862    5.8174 H         1 <0>         0.0000
     56 H27         1.9276   -2.1743    4.8974 H         1 <0>         0.0000
     57 H28         2.3944   -0.2476    7.2390 H         1 <0>         0.0000
     58 H29         3.6750   -1.0671    6.3085 H         1 <0>         0.0000
     59 H30         3.1069   -2.1727    8.2083 H         1 <0>         0.0000
@<TRIPOS>BOND
     1    1    4 ar
     2    1    9 ar
     3    1   30 1
     4    2    5 ar
     5    2    8 ar
     6    2   31 1
     7    3    6 ar
     8    3    8 ar
     9    3   32 1
    10    4   11 ar
    11    4   33 1
    12    5   12 ar
    13    5   34 1
    14    6   12 ar
    15    6   35 1
    16    7   10 ar
    17    7   11 ar
    18    7   36 1
    19    8   13 1
    20    9   10 ar
    21    9   14 1
    22   10   15 1
    23   11   28 1
    24   12   29 1
    25   13   14 2
    26   13   16 1
    27   14   20 1
    28   15   17 1
    29   15   37 1
    30   15   38 1
    31   16   17 1
    32   16   39 1
    33   16   40 1
    34   17   41 1
    35   17   42 1
    36   18   28 1
    37   18   43 1
    38   18   44 1
    39   18   45 1
    40   19   29 1
    41   19   46 1
    42   19   47 1
    43   19   48 1
    44   20   21 1
    45   20   49 1
    46   20   50 1
    47   21   22 1
    48   21   51 1
    49   21   52 1
    50   22   23 1
    51   22   53 1
    52   22   54 1
    53   23   24 1
    54   23   55 1
    55   23   56 1
    56   24   27 1
    57   24   57 1
    58   24   58 1
    59   25   29 2
    60   26   29 2
    61   27   59 1
