@<TRIPOS>MOLECULE
*****
   24    25     0     0     0
SMALL
NO_CHARGES

@<TRIPOS>ATOM
      1 C1          0.2265   -0.4197    0.9733 C.ar      1 <0>         0.0000
      2 C2          1.3879   -0.0684    1.6522 C.ar      1 <0>         0.0000
      3 C3         -0.6317   -1.3224    1.5803 C.ar      1 <0>         0.0000
      4 C4          3.5549    3.3029    3.3231 C.2       1 <0>         0.0000
      5 C5          4.9014    3.0462    3.4757 C.2       1 <0>         0.0000
      6 C6          1.6520   -0.6227    2.8997 C.ar      1 <0>         0.0000
      7 C7          0.7299   -1.5161    3.4206 C.ar      1 <0>         0.0000
      8 C8          3.4541    1.1212    3.5229 C.2       1 <0>         0.0000
      9 C9          2.8738   -0.2523    3.6006 C.2       1 <0>         0.0000
     10 C10         0.1083   -3.0153    5.3159 C.3       1 <0>         0.0000
     11 N1         -0.4092   -1.8816    2.7908 N.ar      1 <0>         0.0000
     12 N2          2.7235    2.2002    3.3495 N.2       1 <0>         0.0000
     13 N3          0.9932   -2.0875    4.6911 N.pl3     1 <0>         0.0000
     14 O1          3.4724   -1.0873    4.2929 O.2       1 <0>         0.0000
     15 S1          5.1478    1.3593    3.6625 S.3       1 <0>         0.0000
     16 H1          0.0011   -0.0014   -0.0010 H         1 <0>         0.0000
     17 H2          2.0793    0.6373    1.1992 H         1 <0>         0.0000
     18 H3         -1.5509   -1.6290    1.0921 H         1 <0>         0.0000
     19 H4          3.1228    4.2852    3.1859 H         1 <0>         0.0000
     20 H5          5.7240    3.7466    3.4866 H         1 <0>         0.0000
     21 H6         -0.7585   -3.1973    4.6753 H         1 <0>         0.0000
     22 H7         -0.2390   -2.6197    6.2741 H         1 <0>         0.0000
     23 H8          0.6202   -3.9649    5.4936 H         1 <0>         0.0000
     24 H9          1.8405   -1.8071    5.1405 H         1 <0>         0.0000
@<TRIPOS>BOND
     1    1    2 ar
     2    1    3 ar
     3    1   16 1
     4    2    6 ar
     5    2   17 1
     6    3   11 ar
     7    3   18 1
     8    4    5 2
     9    4   12 1
    10    4   19 1
    11    5   15 1
    12    5   20 1
    13    6    7 ar
    14    6    9 1
    15    7   11 ar
    16    7   13 1
    17    8    9 1
    18    8   12 2
    19    8   15 1
    20    9   14 2
    21   10   13 1
    22   10   21 1
    23   10   22 1
    24   10   23 1
    25   13   24 1
