@<TRIPOS>MOLECULE
*****
   33    34     0     0     0
SMALL
NO_CHARGES

@<TRIPOS>ATOM
      1 C1          3.2407    5.5189   -8.1482 C.ar      1 <0>         0.0000
      2 C2          2.7235    6.2003   -7.0463 C.ar      1 <0>         0.0000
      3 C3          2.9382    4.1707   -8.3393 C.ar      1 <0>         0.0000
      4 C4          1.9039    5.5336   -6.1357 C.ar      1 <0>         0.0000
      5 C5          2.1186    3.5040   -7.4286 C.ar      1 <0>         0.0000
      6 C6          1.6014    4.1854   -6.3268 C.ar      1 <0>         0.0000
      7 C7          0.7335    3.4794   -5.3627 C.2       1 <0>         0.0000
      8 C8          0.5636    0.5439   -0.7663 C.3       1 <0>         0.0000
      9 C9          0.1339    2.0082   -0.7774 C.3       1 <0>         0.0000
     10 C10         0.3506   -0.1159   -2.1257 C.3       1 <0>         0.0000
     11 C11         0.8244    2.7893   -1.8941 C.3       1 <0>         0.0000
     12 C12         1.0408    0.6628   -3.2444 C.3       1 <0>         0.0000
     13 C13         0.5978    2.1300   -3.2590 C.3       1 <0>         0.0000
     14 N1          1.3312    2.8600   -4.2912 N.am      1 <0>         0.0000
     15 O1         -0.4774    3.4923   -5.5773 O.2       1 <0>         0.0000
     16 O2          2.7147    2.8557   -4.0628 O.3       1 <0>         0.0000
     17 H1          3.8788    6.0380   -8.8572 H         1 <0>         0.0000
     18 H2          2.9593    7.2500   -6.8974 H         1 <0>         0.0000
     19 H3          3.3408    3.6404   -9.1973 H         1 <0>         0.0000
     20 H4          1.5064    6.0746   -5.2808 H         1 <0>         0.0000
     21 H5          1.8893    2.4533   -7.5872 H         1 <0>         0.0000
     22 H6         -0.0002    0.0000   -0.0001 H         1 <0>         0.0000
     23 H7          1.6234    0.4775   -0.4911 H         1 <0>         0.0000
     24 H8         -0.9535    2.0686   -0.9090 H         1 <0>         0.0000
     25 H9          0.3646    2.4674    0.1904 H         1 <0>         0.0000
     26 H10         0.7336   -1.1424   -2.1011 H         1 <0>         0.0000
     27 H11        -0.7241   -0.1803   -2.3360 H         1 <0>         0.0000
     28 H12         0.4409    3.8168   -1.9036 H         1 <0>         0.0000
     29 H13         1.8993    2.8478   -1.6795 H         1 <0>         0.0000
     30 H14         2.1281    0.6005   -3.1071 H         1 <0>         0.0000
     31 H15         0.8096    0.1898   -4.2063 H         1 <0>         0.0000
     32 H16        -0.4512    2.1966   -3.5320 H         1 <0>         0.0000
     33 H17         3.0217    3.3723   -4.8273 H         1 <0>         0.0000
@<TRIPOS>BOND
     1    1    3 ar
     2    1    2 ar
     3    1   17 1
     4    2    4 ar
     5    2   18 1
     6    3    5 ar
     7    3   19 1
     8    4    6 ar
     9    4   20 1
    10    5    6 ar
    11    5   21 1
    12    6    7 1
    13    7   14 am
    14    7   15 2
    15    8   10 1
    16    8    9 1
    17    8   22 1
    18    8   23 1
    19    9   11 1
    20    9   24 1
    21    9   25 1
    22   10   12 1
    23   10   26 1
    24   10   27 1
    25   11   13 1
    26   11   28 1
    27   11   29 1
    28   12   13 1
    29   12   30 1
    30   12   31 1
    31   13   14 1
    32   13   32 1
    33   14   16 1
    34   16   33 1
