@<TRIPOS>MOLECULE
*****
   22    23     0     0     0
SMALL
NO_CHARGES

@<TRIPOS>ATOM
      1 C1         -2.7290   -2.5223    1.0230 C.ar      1 <0>         0.0000
      2 C2         -1.6047   -1.7068    1.0880 C.ar      1 <0>         0.0000
      3 C3         -2.9030   -2.0093   -1.2929 C.ar      1 <0>         0.0000
      4 C4         -3.3963   -2.6818   -0.1864 C.ar      1 <0>         0.0000
      5 C5         -1.1915   -1.0781   -0.0755 C.ar      1 <0>         0.0000
      6 C6         -0.1180    1.2100   -0.5791 C.3       1 <0>         0.0000
      7 C7         -0.0223    1.0013    0.8999 C.3       1 <0>         0.0000
      8 C8          0.0107   -0.1991   -0.0290 C.3       1 <0>         0.0000
      9 C9          1.3241   -0.9072   -0.2135 C.3       1 <0>         0.0000
     10 N1         -1.8139   -1.2087   -1.2685 N.ar      1 <0>         0.0000
     11 O1          1.3349   -1.5614   -1.4773 O.3       1 <0>         0.0000
     12 Br1        -4.9212   -3.7791   -0.3187 Br        1 <0>         0.0000
     13 H1         -3.0726   -3.0265    1.9222 H         1 <0>         0.0000
     14 H2         -1.0746   -1.5753    2.0254 H         1 <0>         0.0000
     15 H3         -3.3766   -2.0918   -2.2664 H         1 <0>         0.0000
     16 H4         -1.0733    1.5287   -0.9802 H         1 <0>         0.0000
     17 H5          0.7356    1.6489   -1.0826 H         1 <0>         0.0000
     18 H6          0.8957    1.3007    1.3922 H         1 <0>         0.0000
     19 H7         -0.9132    1.1786    1.4915 H         1 <0>         0.0000
     20 H8          1.4776   -1.6628    0.5679 H         1 <0>         0.0000
     21 H9          2.1618   -0.1984   -0.1843 H         1 <0>         0.0000
     22 H10         1.2166   -0.8712   -2.1490 H         1 <0>         0.0000
@<TRIPOS>BOND
     1    1    2 ar
     2    1    4 ar
     3    1   13 1
     4    2    5 ar
     5    2   14 1
     6    3    4 ar
     7    3   10 ar
     8    3   15 1
     9    4   12 1
    10    5    8 1
    11    5   10 ar
    12    6    7 1
    13    6    8 1
    14    6   16 1
    15    6   17 1
    16    7    8 1
    17    7   18 1
    18    7   19 1
    19    8    9 1
    20    9   11 1
    21    9   20 1
    22    9   21 1
    23   11   22 1
