@<TRIPOS>MOLECULE
*****
   28    28     0     0     0
SMALL
NO_CHARGES

@<TRIPOS>ATOM
      1 C1          4.7477    3.8601    8.8048 C.ar      1 <0>         0.0000
      2 C2          3.6673    3.0870    9.2300 C.ar      1 <0>         0.0000
      3 C3          4.8742    4.2011    7.4583 C.ar      1 <0>         0.0000
      4 C4          2.7135    2.6549    8.3086 C.ar      1 <0>         0.0000
      5 C5          3.9204    3.7690    6.5368 C.ar      1 <0>         0.0000
      6 C6          2.8400    2.9958    6.9619 C.ar      1 <0>         0.0000
      7 C7          1.8241   -1.1031    3.7166 C.2       1 <0>         0.0000
      8 C8          1.1787   -2.9432    2.1706 C.3       1 <0>         0.0000
      9 C9          1.3332    0.2504    4.2049 C.3       1 <0>         0.0000
     10 C10         2.2475    0.8945    5.2336 C.3       1 <0>         0.0000
     11 N1          0.9594   -1.6520    2.7806 N.am      1 <0>         0.0000
     12 O1          2.8517   -1.6355    4.1271 O.2       1 <0>         0.0000
     13 O2          0.3993    2.2257    6.5325 O.2       1 <0>         0.0000
     14 O3          1.6500    3.3677    4.6677 O.2       1 <0>         0.0000
     15 S1          1.6295    2.4513    5.7943 S.o2      1 <0>         0.0000
     16 H1          5.4897    4.1968    9.5230 H         1 <0>         0.0000
     17 H2          3.5688    2.8223   10.2786 H         1 <0>         0.0000
     18 H3          5.7147    4.8039    7.1270 H         1 <0>         0.0000
     19 H4          1.8752    2.0542    8.6510 H         1 <0>         0.0000
     20 H5          4.0280    4.0410    5.4902 H         1 <0>         0.0000
     21 H6          1.7729   -2.8197    1.2532 H         1 <0>         0.0000
     22 H7          1.7203   -3.5934    2.8734 H         1 <0>         0.0000
     23 H8          0.2096   -3.3999    1.9209 H         1 <0>         0.0000
     24 H9          1.2008    0.9139    3.3421 H         1 <0>         0.0000
     25 H10         0.3472    0.0878    4.6569 H         1 <0>         0.0000
     26 H11         3.2552    1.0670    4.8449 H         1 <0>         0.0000
     27 H12         2.3209    0.2609    6.1231 H         1 <0>         0.0000
     28 H13         0.1353   -1.1223    2.5122 H         1 <0>         0.0000
@<TRIPOS>BOND
     1    1    3 ar
     2    1    2 ar
     3    1   16 1
     4    2    4 ar
     5    2   17 1
     6    3    5 ar
     7    3   18 1
     8    4    6 ar
     9    4   19 1
    10    5    6 ar
    11    5   20 1
    12    6   15 1
    13    7    9 1
    14    7   11 am
    15    7   12 2
    16    8   11 1
    17    8   21 1
    18    8   22 1
    19    8   23 1
    20    9   10 1
    21    9   24 1
    22    9   25 1
    23   10   15 1
    24   10   26 1
    25   10   27 1
    26   11   28 1
    27   13   15 2
    28   14   15 2
