@<TRIPOS>MOLECULE
*****
   31    32     0     0     0
SMALL
NO_CHARGES

@<TRIPOS>ATOM
      1 C1          7.4028   -3.3038   -3.2353 C.ar      1 <0>         0.0000
      2 C2          6.7181   -2.2188   -3.7829 C.ar      1 <0>         0.0000
      3 C3          7.0161   -3.8204   -1.9988 C.ar      1 <0>         0.0000
      4 C4          5.6466   -1.6506   -3.0938 C.ar      1 <0>         0.0000
      5 C5          5.9447   -3.2522   -1.3097 C.ar      1 <0>         0.0000
      6 C6          1.8851   -1.0363   -0.1124 C.ar      1 <0>         0.0000
      7 C7          0.7638   -0.4841    1.9551 C.ar      1 <0>         0.0000
      8 C8          0.8066   -0.4630    0.5610 C.ar      1 <0>         0.0000
      9 C9          5.2599   -2.1673   -1.8572 C.ar      1 <0>         0.0000
     10 C10         2.9210   -1.6309    0.6081 C.ar      1 <0>         0.0000
     11 C11         2.8783   -1.6520    2.0022 C.ar      1 <0>         0.0000
     12 C12         1.7997   -1.0786    2.6757 C.ar      1 <0>         0.0000
     13 C13        -0.0519    1.6549   -0.4704 C.3       1 <0>         0.0000
     14 C14        -0.3012    0.1716   -0.2099 C.3       1 <0>         0.0000
     15 N1          4.1800   -1.5948   -1.1635 N.2       1 <0>         0.0000
     16 N2          3.9969   -2.2017   -0.0828 N.2       1 <0>         0.0000
     17 O1          3.8998   -2.2358    2.6939 O.3       1 <0>         0.0000
     18 Br1         1.7056   -1.0865    4.5691 Br        1 <0>         0.0000
     19 H1          8.2371   -3.7463   -3.7717 H         1 <0>         0.0000
     20 H2          7.0193   -1.8166   -4.7456 H         1 <0>         0.0000
     21 H3          7.5495   -4.6651   -1.5724 H         1 <0>         0.0000
     22 H4          5.1192   -0.8055   -3.5287 H         1 <0>         0.0000
     23 H5          5.6500   -3.6616   -0.3470 H         1 <0>         0.0000
     24 H6          1.9171   -1.0197   -1.1994 H         1 <0>         0.0000
     25 H7         -0.0810   -0.0347    2.4721 H         1 <0>         0.0000
     26 H8          0.0942    2.1996    0.4686 H         1 <0>         0.0000
     27 H9         -0.9011    2.1044   -0.9946 H         1 <0>         0.0000
     28 H10         0.8423    1.8007   -1.0859 H         1 <0>         0.0000
     29 H11        -0.4433   -0.3440   -1.1733 H         1 <0>         0.0000
     30 H12        -1.2572    0.0561    0.3258 H         1 <0>         0.0000
     31 H13         3.7337   -2.1750    3.6468 H         1 <0>         0.0000
@<TRIPOS>BOND
     1    1    3 ar
     2    1    2 ar
     3    1   19 1
     4    2    4 ar
     5    2   20 1
     6    3    5 ar
     7    3   21 1
     8    4    9 ar
     9    4   22 1
    10    5    9 ar
    11    5   23 1
    12    6    8 ar
    13    6   10 ar
    14    6   24 1
    15    7    8 ar
    16    7   12 ar
    17    7   25 1
    18    8   14 1
    19    9   15 1
    20   10   11 ar
    21   10   16 1
    22   11   12 ar
    23   11   17 1
    24   12   18 1
    25   13   14 1
    26   13   26 1
    27   13   27 1
    28   13   28 1
    29   14   29 1
    30   14   30 1
    31   15   16 2
    32   17   31 1
