@<TRIPOS>MOLECULE
*****
   24    25     0     0     0
SMALL
NO_CHARGES

@<TRIPOS>ATOM
      1 C1          4.3006   -5.7167   -1.7906 C.ar      1 <0>         0.0000
      2 C2         -0.3297   -1.5826   -1.3679 C.2       1 <0>         0.0000
      3 C3          4.7259   -6.3540   -0.6304 C.ar      1 <0>         0.0000
      4 C4          2.9668   -5.3479   -1.9256 C.ar      1 <0>         0.0000
      5 C5         -0.1503   -2.9818   -1.6663 C.2       1 <0>         0.0000
      6 C6          0.0711   -1.0635   -0.2007 C.2       1 <0>         0.0000
      7 C7          3.7855   -6.5979    0.3576 C.ar      1 <0>         0.0000
      8 C8          2.1051   -5.6370   -0.8798 C.ar      1 <0>         0.0000
      9 C9          0.4287   -3.7921   -0.7662 C.2       1 <0>         0.0000
     10 C10         0.7159   -1.9490    0.8106 C.2       1 <0>         0.0000
     11 C11         0.6547   -5.2525   -0.9916 C.3       1 <0>         0.0000
     12 N1          2.4814   -6.2546    0.2624 N.ar      1 <0>         0.0000
     13 N2          0.8500   -3.2789    0.4441 N.am      1 <0>         0.0000
     14 O1          1.0900   -1.4905    1.8871 O.2       1 <0>         0.0000
     15 H1          5.0074   -5.5078   -2.5881 H         1 <0>         0.0000
     16 H2         -0.8008   -0.9587   -2.1193 H         1 <0>         0.0000
     17 H3          5.7608   -6.6504   -0.5034 H         1 <0>         0.0000
     18 H4          2.6223   -4.8502   -2.8257 H         1 <0>         0.0000
     19 H5         -0.4951   -3.3455   -2.6279 H         1 <0>         0.0000
     20 H6         -0.0575   -0.0147    0.0369 H         1 <0>         0.0000
     21 H7          4.0665   -7.0922    1.2817 H         1 <0>         0.0000
     22 H8          0.2772   -5.5270   -1.9828 H         1 <0>         0.0000
     23 H9          0.0561   -5.8219   -0.2725 H         1 <0>         0.0000
     24 H10         1.2849   -3.9149    1.1066 H         1 <0>         0.0000
@<TRIPOS>BOND
     1    1    3 ar
     2    1    4 ar
     3    1   15 1
     4    2    6 2
     5    2    5 1
     6    2   16 1
     7    3    7 ar
     8    3   17 1
     9    4    8 ar
    10    4   18 1
    11    5    9 2
    12    5   19 1
    13    6   10 1
    14    6   20 1
    15    7   12 ar
    16    7   21 1
    17    8   11 1
    18    8   12 ar
    19    9   11 1
    20    9   13 1
    21   10   13 am
    22   10   14 2
    23   11   22 1
    24   11   23 1
    25   13   24 1
