@<TRIPOS>MOLECULE
*****
   56    58     0     0     0
SMALL
NO_CHARGES

@<TRIPOS>ATOM
      1 C1          1.8851   -1.0363   -0.1124 C.ar      1 <0>         0.0000
      2 C2          0.8066   -0.4630    0.5610 C.ar      1 <0>         0.0000
      3 C3          2.9210   -1.6309    0.6081 C.ar      1 <0>         0.0000
      4 C4          3.8461   -3.3337   -1.1010 C.2       1 <0>         0.0000
      5 C5          2.8783   -1.6520    2.0022 C.ar      1 <0>         0.0000
      6 C6          1.7997   -1.0786    2.6757 C.ar      1 <0>         0.0000
      7 C7          0.7638   -0.4841    1.9551 C.ar      1 <0>         0.0000
      8 C8          2.8807   -4.3581   -1.1229 C.2       1 <0>         0.0000
      9 C9          4.6233   -3.5707   -2.2084 C.2       1 <0>         0.0000
     10 C10         4.0339   -2.2209   -0.1240 C.2       1 <0>         0.0000
     11 C11         1.1906   -5.9051    0.1516 C.3       1 <0>         0.0000
     12 C12         2.0767   -5.2924    1.1907 C.3       1 <0>         0.0000
     13 C13         1.7742   -4.5262   -0.0811 C.3       1 <0>         0.0000
     14 C14         3.9928   -2.2897    2.7722 C.3       1 <0>         0.0000
     15 C15         0.9658   -2.3890    8.8533 C.3       1 <0>         0.0000
     16 C16         4.5682   -5.3244   -4.0066 C.3       1 <0>         0.0000
     17 C17        -0.1221    1.9361    3.0091 C.3       1 <0>         0.0000
     18 C18         2.3189   -0.0643    4.8954 C.3       1 <0>         0.0000
     19 C19         2.1632   -1.7917    8.1454 C.3       1 <0>         0.0000
     20 C20         2.8253   -0.6501    6.2008 C.3       1 <0>         0.0000
     21 N1          3.0289   -5.1842   -2.1619 N.2       1 <0>         0.0000
     22 N2          4.0965   -4.6792   -2.8033 N.pl3     1 <0>         0.0000
     23 N3          1.7605   -1.1024    4.0893 N.pl3     1 <0>         0.0000
     24 O1          5.1864   -1.8024    0.0519 O.2       1 <0>         0.0000
     25 O2         -1.7276    0.2312    1.8300 O.2       1 <0>         0.0000
     26 O3         -0.7523   -0.3565    4.0771 O.2       1 <0>         0.0000
     27 O4          5.6796   -2.9441   -2.7071 O.3       1 <0>         0.0000
     28 O5          1.7382   -1.2282    6.9121 O.3       1 <0>         0.0000
     29 S1         -0.6100    0.2454    2.7604 S.o2      1 <0>         0.0000
     30 H1          1.9070   -1.0130   -1.1992 H         1 <0>         0.0000
     31 H2          0.0060   -0.0033   -0.0124 H         1 <0>         0.0000
     32 H3          1.5848   -6.7360   -0.4210 H         1 <0>         0.0000
     33 H4          0.1315   -5.9758    0.3681 H         1 <0>         0.0000
     34 H5          1.6163   -4.9495    2.1093 H         1 <0>         0.0000
     35 H6          3.0672   -5.7121    1.3184 H         1 <0>         0.0000
     36 H7          1.0895   -3.6861    0.0081 H         1 <0>         0.0000
     37 H8          4.7682   -1.5493    2.9944 H         1 <0>         0.0000
     38 H9          3.6275   -2.7117    3.7149 H         1 <0>         0.0000
     39 H10         4.4425   -3.1116    2.2039 H         1 <0>         0.0000
     40 H11         0.2131   -1.6233    9.0605 H         1 <0>         0.0000
     41 H12         0.5105   -3.1767    8.2440 H         1 <0>         0.0000
     42 H13         1.2679   -2.8523    9.7984 H         1 <0>         0.0000
     43 H14         5.3052   -6.0785   -3.7182 H         1 <0>         0.0000
     44 H15         3.7254   -5.7916   -4.5236 H         1 <0>         0.0000
     45 H16         5.0215   -4.5768   -4.6635 H         1 <0>         0.0000
     46 H17        -0.9372    2.4593    3.5117 H         1 <0>         0.0000
     47 H18         0.7776    1.9477    3.6261 H         1 <0>         0.0000
     48 H19         0.0764    2.3841    2.0344 H         1 <0>         0.0000
     49 H20         1.5432    0.6874    5.0723 H         1 <0>         0.0000
     50 H21         3.1420    0.3942    4.3391 H         1 <0>         0.0000
     51 H22         2.9122   -2.5627    7.9411 H         1 <0>         0.0000
     52 H23         2.6165   -1.0044    8.7551 H         1 <0>         0.0000
     53 H24         3.2550    0.1400    6.8244 H         1 <0>         0.0000
     54 H25         3.5834   -1.4211    6.0289 H         1 <0>         0.0000
     55 H26         1.3177   -1.8928    4.5144 H         1 <0>         0.0000
     56 H27         5.9393   -2.1649   -2.1664 H         1 <0>         0.0000
@<TRIPOS>BOND
     1    1    2 ar
     2    1    3 ar
     3    1   30 1
     4    2    7 ar
     5    2   31 1
     6    3    5 ar
     7    3   10 1
     8    4    8 1
     9    4    9 2
    10    4   10 1
    11    5    6 ar
    12    5   14 1
    13    6    7 ar
    14    6   23 1
    15    7   29 1
    16    8   13 1
    17    8   21 2
    18    9   22 1
    19    9   27 1
    20   10   24 2
    21   11   12 1
    22   11   13 1
    23   11   32 1
    24   11   33 1
    25   12   13 1
    26   12   34 1
    27   12   35 1
    28   13   36 1
    29   14   37 1
    30   14   38 1
    31   14   39 1
    32   15   19 1
    33   15   40 1
    34   15   41 1
    35   15   42 1
    36   16   22 1
    37   16   43 1
    38   16   44 1
    39   16   45 1
    40   17   29 1
    41   17   46 1
    42   17   47 1
    43   17   48 1
    44   18   20 1
    45   18   23 1
    46   18   49 1
    47   18   50 1
    48   19   28 1
    49   19   51 1
    50   19   52 1
    51   20   28 1
    52   20   53 1
    53   20   54 1
    54   21   22 1
    55   23   55 1
    56   25   29 2
    57   26   29 2
    58   27   56 1
