@<TRIPOS>MOLECULE
*****
   39    41     0     0     0
SMALL
NO_CHARGES

@<TRIPOS>ATOM
      1 C1         -1.3356   -0.6390   -2.1068 C.ar      1 <0>         0.0000
      2 C2         -2.2246    0.2594   -1.5235 C.ar      1 <0>         0.0000
      3 C3          4.7247   -1.0990   -3.5824 C.ar      1 <0>         0.0000
      4 C4         -0.1118   -0.9191   -1.4922 C.ar      1 <0>         0.0000
      5 C5          4.2698   -2.4008   -3.3730 C.ar      1 <0>         0.0000
      6 C6          3.6771   -0.4013   -1.5201 C.ar      1 <0>         0.0000
      7 C7         -1.8830    0.8974   -0.3343 C.ar      1 <0>         0.0000
      8 C8          4.4284   -0.0992   -2.6559 C.ar      1 <0>         0.0000
      9 C9          0.2258   -0.3217   -0.2704 C.ar      1 <0>         0.0000
     10 C10        -0.6524    0.6312    0.2733 C.ar      1 <0>         0.0000
     11 C11         3.5185   -2.7029   -2.2373 C.ar      1 <0>         0.0000
     12 C12         3.2221   -1.7031   -1.3108 C.ar      1 <0>         0.0000
     13 C13        -2.8225    1.8536    0.2388 C.2       1 <0>         0.0000
     14 C14         1.6022   -0.0090    1.7579 C.3       1 <0>         0.0000
     15 C15         0.9935    1.3797    1.7586 C.3       1 <0>         0.0000
     16 C16         4.9146    1.2926   -2.8810 C.3       1 <0>         0.0000
     17 N1          1.5103   -0.5462    0.3732 N.pl3     1 <0>         0.0000
     18 O1         -2.9499    2.0937    1.4418 O.2       1 <0>         0.0000
     19 O2          1.2713   -3.0419   -0.2267 O.2       1 <0>         0.0000
     20 O3          3.1933   -2.3013    1.2241 O.2       1 <0>         0.0000
     21 O4         -0.3962    1.3269    1.4301 O.3       1 <0>         0.0000
     22 O5          3.0833   -3.9808   -2.0541 O.3       1 <0>         0.0000
     23 O6         -3.5692    2.4775   -0.7113 O.3       1 <0>         0.0000
     24 S1          2.2718   -2.0596    0.1339 S.o2      1 <0>         0.0000
     25 H1         -1.5916   -1.1219   -3.0456 H         1 <0>         0.0000
     26 H2         -3.1733    0.4635   -2.0128 H         1 <0>         0.0000
     27 H3          5.3092   -0.8726   -4.4701 H         1 <0>         0.0000
     28 H4          0.5564   -1.6128   -1.9926 H         1 <0>         0.0000
     29 H5          4.5038   -3.1749   -4.0989 H         1 <0>         0.0000
     30 H6          3.4484    0.3806   -0.7996 H         1 <0>         0.0000
     31 H7          2.6522    0.0462    2.0620 H         1 <0>         0.0000
     32 H8          1.0585   -0.6723    2.4409 H         1 <0>         0.0000
     33 H9          1.0760    1.8200    2.7578 H         1 <0>         0.0000
     34 H10         1.5046    2.0529    1.0584 H         1 <0>         0.0000
     35 H11         4.1752    1.8680   -3.4512 H         1 <0>         0.0000
     36 H12         5.0992    1.8089   -1.9300 H         1 <0>         0.0000
     37 H13         5.8626    1.2988   -3.4347 H         1 <0>         0.0000
     38 H14         3.3757   -4.5429   -2.7887 H         1 <0>         0.0000
     39 H15        -4.2042    3.1240   -0.3357 H         1 <0>         0.0000
@<TRIPOS>BOND
     1    1    2 ar
     2    1    4 ar
     3    1   25 1
     4    2    7 ar
     5    2   26 1
     6    3    5 ar
     7    3    8 ar
     8    3   27 1
     9    4    9 ar
    10    4   28 1
    11    5   11 ar
    12    5   29 1
    13    6    8 ar
    14    6   12 ar
    15    6   30 1
    16    7   10 ar
    17    7   13 1
    18    8   16 1
    19    9   10 ar
    20    9   17 1
    21   10   21 1
    22   11   12 ar
    23   11   22 1
    24   12   24 1
    25   13   18 2
    26   13   23 1
    27   14   15 1
    28   14   17 1
    29   14   31 1
    30   14   32 1
    31   15   21 1
    32   15   33 1
    33   15   34 1
    34   16   35 1
    35   16   36 1
    36   16   37 1
    37   17   24 1
    38   19   24 2
    39   20   24 2
    40   22   38 1
    41   23   39 1
