@<TRIPOS>MOLECULE
*****
   55    58     0     0     0
SMALL
NO_CHARGES

@<TRIPOS>ATOM
      1 C1          1.2302    8.4250    1.0834 C.ar      1 <0>         0.0000
      2 C2         -1.7497    8.7021    1.3170 C.ar      1 <0>         0.0000
      3 C3          0.6300    6.0672    0.7847 C.2       1 <0>         0.0000
      4 C4          4.6284   12.6240    1.5103 C.2       1 <0>         0.0000
      5 C5          0.3185    7.3809    0.9930 C.ar      1 <0>         0.0000
      6 C6         -1.1187    7.4636    1.0984 C.ar      1 <0>         0.0000
      7 C7          0.5713    9.6510    1.3021 C.ar      1 <0>         0.0000
      8 C8         -0.8487    9.7853    1.4137 C.ar      1 <0>         0.0000
      9 C9          3.3068   12.2534    1.5358 C.2       1 <0>         0.0000
     10 C10         3.3880   14.3241    1.8941 C.2       1 <0>         0.0000
     11 C11         2.7682   10.8973    1.3344 C.2       1 <0>         0.0000
     12 C12         3.4013   16.8590    1.2245 C.3       1 <0>         0.0000
     13 C13         1.9673   16.4308    1.2495 C.3       1 <0>         0.0000
     14 C14         2.9610   15.7730    2.1790 C.3       1 <0>         0.0000
     15 C15        -2.2151   13.0232    0.5984 C.3       1 <0>         0.0000
     16 C16        -0.0579    1.0328    1.2454 C.3       1 <0>         0.0000
     17 C17        -1.7268    1.1668    3.1062 C.3       1 <0>         0.0000
     18 C18        -1.0780    3.2783    1.8997 C.3       1 <0>         0.0000
     19 C19        -0.7848    3.9957    0.5776 C.3       1 <0>         0.0000
     20 C20        -2.2891   11.5117    0.6388 C.3       1 <0>         0.0000
     21 C21        -1.3020    1.7591    1.7587 C.3       1 <0>         0.0000
     22 N1         -1.6412    6.2327    0.9560 N.2       1 <0>         0.0000
     23 N2          2.5168   13.3470    1.7824 N.2       1 <0>         0.0000
     24 N3         -0.5759    5.4290    0.7719 N.pl3     1 <0>         0.0000
     25 N4          1.3678   10.7981    1.4131 N.am      1 <0>         0.0000
     26 O1          3.5169    9.9404    1.1482 O.2       1 <0>         0.0000
     27 O2          4.6921   13.9649    1.7415 O.3       1 <0>         0.0000
     28 O3         -2.3543    1.5197    0.8222 O.3       1 <0>         0.0000
     29 O4         -1.3864   11.0301    1.6258 O.3       1 <0>         0.0000
     30 H1          2.3041    8.3251    0.9997 H         1 <0>         0.0000
     31 H2         -2.8221    8.8190    1.4023 H         1 <0>         0.0000
     32 H3          1.5649    5.5406    0.6467 H         1 <0>         0.0000
     33 H4          5.5694   12.1168    1.3572 H         1 <0>         0.0000
     34 H5          3.9947   16.5840    0.3607 H         1 <0>         0.0000
     35 H6          3.6475   17.8268    1.6444 H         1 <0>         0.0000
     36 H7          1.2446   17.1095    1.6860 H         1 <0>         0.0000
     37 H8          1.5951   15.8686    0.4015 H         1 <0>         0.0000
     38 H9          2.9015   16.0324    3.2299 H         1 <0>         0.0000
     39 H10        -2.4926   13.4534    1.5647 H         1 <0>         0.0000
     40 H11        -1.2031   13.3534    0.3419 H         1 <0>         0.0000
     41 H12        -2.8845   13.4218   -0.1711 H         1 <0>         0.0000
     42 H13         0.2732    1.4325    0.2815 H         1 <0>         0.0000
     43 H14         0.7686    1.1279    1.9596 H         1 <0>         0.0000
     44 H15        -0.2364   -0.0423    1.1385 H         1 <0>         0.0000
     45 H16        -2.6172    1.6657    3.5028 H         1 <0>         0.0000
     46 H17        -0.9205    1.2550    3.8434 H         1 <0>         0.0000
     47 H18        -1.9422    0.0962    3.0130 H         1 <0>         0.0000
     48 H19        -0.2608    3.4678    2.6078 H         1 <0>         0.0000
     49 H20        -1.9787    3.7292    2.3388 H         1 <0>         0.0000
     50 H21        -1.6103    3.8778   -0.1336 H         1 <0>         0.0000
     51 H22         0.1177    3.6007    0.0985 H         1 <0>         0.0000
     52 H23        -2.0104   11.0878   -0.3306 H         1 <0>         0.0000
     53 H24        -3.3006   11.1835    0.8960 H         1 <0>         0.0000
     54 H25         0.8660   11.6766    1.5717 H         1 <0>         0.0000
     55 H26        -3.1327    1.9857    1.1619 H         1 <0>         0.0000
@<TRIPOS>BOND
     1    1    5 ar
     2    1    7 ar
     3    1   30 1
     4    2    6 ar
     5    2    8 ar
     6    2   31 1
     7    3    5 2
     8    3   24 1
     9    3   32 1
    10    4    9 2
    11    4   27 1
    12    4   33 1
    13    5    6 ar
    14    6   22 2
    15    7    8 ar
    16    7   25 1
    17    8   29 1
    18    9   11 1
    19    9   23 1
    20   10   14 1
    21   10   23 2
    22   10   27 1
    23   11   25 am
    24   11   26 2
    25   12   13 1
    26   12   14 1
    27   12   34 1
    28   12   35 1
    29   13   14 1
    30   13   36 1
    31   13   37 1
    32   14   38 1
    33   15   20 1
    34   15   39 1
    35   15   40 1
    36   15   41 1
    37   16   21 1
    38   16   42 1
    39   16   43 1
    40   16   44 1
    41   17   21 1
    42   17   45 1
    43   17   46 1
    44   17   47 1
    45   18   19 1
    46   18   21 1
    47   18   48 1
    48   18   49 1
    49   19   24 1
    50   19   50 1
    51   19   51 1
    52   20   29 1
    53   20   52 1
    54   20   53 1
    55   21   28 1
    56   22   24 1
    57   25   54 1
    58   28   55 1
