@<TRIPOS>MOLECULE
*****
   34    35     0     0     0
SMALL
NO_CHARGES

@<TRIPOS>ATOM
      1 C1          1.1268    0.9958   -5.3376 C.ar      1 <0>         0.0000
      2 C2          2.4231   -0.7291   -4.2506 C.ar      1 <0>         0.0000
      3 C3          0.7063    1.4641   -4.0929 C.ar      1 <0>         0.0000
      4 C4          2.0026   -0.2607   -3.0059 C.ar      1 <0>         0.0000
      5 C5          1.9852   -0.1009   -5.4165 C.ar      1 <0>         0.0000
      6 C6          1.1442    0.8359   -2.9270 C.ar      1 <0>         0.0000
      7 C7          1.7752   -3.0188   -6.6814 C.2       1 <0>         0.0000
      8 C8         -1.1004    1.5942   -0.0006 C.3       1 <0>         0.0000
      9 C9         -1.3358   -0.0956   -1.2753 C.3       1 <0>         0.0000
     10 C10        -0.6791    1.2908   -1.4550 C.3       1 <0>         0.0000
     11 C11        -2.1968    0.5176   -0.1502 C.3       1 <0>         0.0000
     12 C12         2.4410   -0.6076   -6.7637 C.3       1 <0>         0.0000
     13 C13         1.5086   -1.6770   -7.3477 C.3       1 <0>         0.0000
     14 N1          1.6508   -1.7732   -8.7790 N.3       1 <0>         0.0000
     15 O1          2.6070   -3.8177   -7.0989 O.2       1 <0>         0.0000
     16 O2          1.0258   -3.2661   -5.5804 O.3       1 <0>         0.0000
     17 O3          0.7348    1.2939   -1.7124 O.3       1 <0>         0.0000
     18 F1         -2.4079   -0.2672    0.9293 F         1 <0>         0.0000
     19 H1          0.7807    1.4912   -6.2407 H         1 <0>         0.0000
     20 H2          3.0919   -1.5844   -4.3025 H         1 <0>         0.0000
     21 H3          0.0377    2.3192   -4.0379 H         1 <0>         0.0000
     22 H4          2.3474   -0.7541   -2.1015 H         1 <0>         0.0000
     23 H5         -0.3390    1.3511    0.7493 H         1 <0>         0.0000
     24 H6         -1.4658    2.6085    0.1809 H         1 <0>         0.0000
     25 H7         -1.8939   -0.4664   -2.1391 H         1 <0>         0.0000
     26 H8         -0.6494   -0.8782   -0.9327 H         1 <0>         0.0000
     27 H9         -1.2011    1.9191   -2.1864 H         1 <0>         0.0000
     28 H10        -3.1379    0.9359   -0.5310 H         1 <0>         0.0000
     29 H11         3.4580   -1.0064   -6.6510 H         1 <0>         0.0000
     30 H12         2.5365    0.2338   -7.4635 H         1 <0>         0.0000
     31 H13         0.4560   -1.4330   -7.1634 H         1 <0>         0.0000
     32 H14         1.0471   -2.4907   -9.1225 H         1 <0>         0.0000
     33 H15         1.4043   -0.8989   -9.1935 H         1 <0>         0.0000
     34 H16         0.3949   -2.5542   -5.3431 H         1 <0>         0.0000
@<TRIPOS>BOND
     1    1    3 ar
     2    1    5 ar
     3    1   19 1
     4    2    4 ar
     5    2    5 ar
     6    2   20 1
     7    3    6 ar
     8    3   21 1
     9    4    6 ar
    10    4   22 1
    11    5   12 1
    12    6   17 1
    13    7   13 1
    14    7   15 2
    15    7   16 1
    16    8   10 1
    17    8   11 1
    18    8   23 1
    19    8   24 1
    20    9   10 1
    21    9   11 1
    22    9   25 1
    23    9   26 1
    24   10   17 1
    25   10   27 1
    26   11   18 1
    27   11   28 1
    28   12   13 1
    29   12   29 1
    30   12   30 1
    31   13   14 1
    32   13   31 1
    33   14   32 1
    34   14   33 1
    35   16   34 1
