@<TRIPOS>MOLECULE
*****
   15    14     0     0     0
SMALL
NO_CHARGES

@<TRIPOS>ATOM
      1 C1          0.7123    1.3148    0.1802 C.2       1 <0>         0.0000
      2 C2         -0.0786    0.3083   -0.2138 C.2       1 <0>         0.0000
      3 C3          0.0386   -1.0001    0.4687 C.2       1 <0>         0.0000
      4 O1          0.8060   -1.2618    1.3812 O.2       1 <0>         0.0000
      5 O2         -0.0019    2.3326   -2.7647 O.2       1 <0>         0.0000
      6 O3         -0.8367   -1.8839   -0.0659 O.3       1 <0>         0.0000
      7 O4         -1.8214    2.8249   -0.9334 O.3       1 <0>         0.0000
      8 O5         -2.4799    1.4789   -2.9745 O.3       1 <0>         0.0000
      9 O6         -0.9995    0.4404   -1.2315 O.3       1 <0>         0.0000
     10 P1         -1.2064    1.8125   -2.0357 P.3       1 <0>         0.0000
     11 H1          0.6534    2.2874   -0.2981 H         1 <0>         0.0000
     12 H2          1.4353    1.2060    0.9816 H         1 <0>         0.0000
     13 H3         -0.7821   -2.7624    0.3672 H         1 <0>         0.0000
     14 H4         -2.1398    3.7060   -1.2237 H         1 <0>         0.0000
     15 H5         -2.3842    0.8082   -3.6838 H         1 <0>         0.0000
@<TRIPOS>BOND
     1    1    2 2
     2    1   11 1
     3    1   12 1
     4    2    3 1
     5    2    9 1
     6    3    4 2
     7    3    6 1
     8    5   10 2
     9    6   13 1
    10    7   10 1
    11    7   14 1
    12    8   10 1
    13    8   15 1
    14    9   10 1
