@<TRIPOS>MOLECULE
*****
   49    51     0     0     0
SMALL
NO_CHARGES

@<TRIPOS>ATOM
      1 C1         -1.0784    3.8418    3.4459 C.ar      1 <0>         0.0000
      2 C2         -1.8328    1.8451    4.5779 C.ar      1 <0>         0.0000
      3 C3         -0.3979    3.0570    2.5151 C.ar      1 <0>         0.0000
      4 C4         -1.1523    1.0603    3.6470 C.ar      1 <0>         0.0000
      5 C5          3.3256   -0.8092   -4.0039 C.2       1 <0>         0.0000
      6 C6          2.0070   -4.1357   -2.4944 C.2       1 <0>         0.0000
      7 C7          4.0105   -0.3300   -2.0912 C.2       1 <0>         0.0000
      8 C8          2.7620   -3.4969   -0.6562 C.2       1 <0>         0.0000
      9 C9         -1.7959    3.2359    4.4774 C.ar      1 <0>         0.0000
     10 C10        -0.4348    1.6662    2.6156 C.ar      1 <0>         0.0000
     11 C11        -2.5238    4.0742    5.4730 C.3       1 <0>         0.0000
     12 C12        -1.7246   -0.4545    0.7111 C.3       1 <0>         0.0000
     13 C13        -1.0235    1.6427   -0.4094 C.3       1 <0>         0.0000
     14 C14         0.3030    0.8147    1.6034 C.3       1 <0>         0.0000
     15 C15         1.7390    0.3826   -1.0868 C.3       1 <0>         0.0000
     16 C16         0.8617   -1.8515   -0.0639 C.3       1 <0>         0.0000
     17 C17        -0.4771    0.3795    0.3130 C.3       1 <0>         0.0000
     18 C18         0.4824   -0.4660   -0.6898 C.3       1 <0>         0.0000
     19 N1          4.4595   -0.7691   -3.2441 N.2       1 <0>         0.0000
     20 N2          3.0597   -4.3106   -1.6424 N.2       1 <0>         0.0000
     21 N3          2.2033   -0.4226   -3.3937 N.2       1 <0>         0.0000
     22 N4          1.0767   -3.2649   -2.0973 N.2       1 <0>         0.0000
     23 N5          2.6690   -0.1214   -2.1719 N.pl3     1 <0>         0.0000
     24 N6          1.5836   -2.8709   -0.9192 N.pl3     1 <0>         0.0000
     25 O1         -0.2804   -0.7074   -1.8810 O.3       1 <0>         0.0000
     26 H1         -1.0436    4.9247    3.3602 H         1 <0>         0.0000
     27 H2         -2.3904    1.3648    5.3777 H         1 <0>         0.0000
     28 H3          0.1572    3.5375    1.7139 H         1 <0>         0.0000
     29 H4         -1.1861   -0.0226    3.7328 H         1 <0>         0.0000
     30 H5          3.3162   -1.1320   -5.0342 H         1 <0>         0.0000
     31 H6          1.9137   -4.6605   -3.4333 H         1 <0>         0.0000
     32 H7          4.5915   -0.1542   -1.1969 H         1 <0>         0.0000
     33 H8          3.3418   -3.3304    0.2407 H         1 <0>         0.0000
     34 H9         -3.5484    4.2682    5.1328 H         1 <0>         0.0000
     35 H10        -2.5700    3.5802    6.4522 H         1 <0>         0.0000
     36 H11        -2.0201    5.0376    5.6269 H         1 <0>         0.0000
     37 H12        -1.4509   -1.3769    1.2324 H         1 <0>         0.0000
     38 H13        -2.3024   -0.7614   -0.1681 H         1 <0>         0.0000
     39 H14        -2.4031    0.1134    1.3553 H         1 <0>         0.0000
     40 H15        -0.2204    2.3091   -0.7369 H         1 <0>         0.0000
     41 H16        -1.6255    1.3822   -1.2861 H         1 <0>         0.0000
     42 H17        -1.6762    2.2297    0.2463 H         1 <0>         0.0000
     43 H18         1.2045    1.3722    1.3199 H         1 <0>         0.0000
     44 H19         0.6724   -0.0705    2.1338 H         1 <0>         0.0000
     45 H20         2.3362    0.5626   -0.1844 H         1 <0>         0.0000
     46 H21         1.4230    1.3717   -1.4365 H         1 <0>         0.0000
     47 H22         1.4581   -1.6861    0.8397 H         1 <0>         0.0000
     48 H23        -0.0487   -2.3663    0.2676 H         1 <0>         0.0000
     49 H24         0.3060   -1.1899   -2.4796 H         1 <0>         0.0000
@<TRIPOS>BOND
     1    1    3 ar
     2    1    9 ar
     3    1   26 1
     4    2    4 ar
     5    2    9 ar
     6    2   27 1
     7    3   10 ar
     8    3   28 1
     9    4   10 ar
    10    4   29 1
    11    5   19 1
    12    5   21 2
    13    5   30 1
    14    6   20 1
    15    6   22 2
    16    6   31 1
    17    7   19 2
    18    7   23 1
    19    7   32 1
    20    8   20 2
    21    8   24 1
    22    8   33 1
    23    9   11 1
    24   10   14 1
    25   11   34 1
    26   11   35 1
    27   11   36 1
    28   12   17 1
    29   12   37 1
    30   12   38 1
    31   12   39 1
    32   13   17 1
    33   13   40 1
    34   13   41 1
    35   13   42 1
    36   14   17 1
    37   14   43 1
    38   14   44 1
    39   15   18 1
    40   15   23 1
    41   15   45 1
    42   15   46 1
    43   16   18 1
    44   16   24 1
    45   16   47 1
    46   16   48 1
    47   17   18 1
    48   18   25 1
    49   21   23 1
    50   22   24 1
    51   25   49 1
