@<TRIPOS>MOLECULE
*****
   29    30     0     0     0
SMALL
NO_CHARGES

@<TRIPOS>ATOM
      1 C1          2.6991    1.0778    1.4395 C.2       1 <0>         0.0000
      2 C2          0.7293    0.3417    2.9072 C.3       1 <0>         0.0000
      3 C3          1.9387   -0.4075    3.3842 C.3       1 <0>         0.0000
      4 C4          2.8769   -1.6606    0.5350 C.3       1 <0>         0.0000
      5 C5          0.9733   -0.4226   -0.2775 C.3       1 <0>         0.0000
      6 C6          2.6493   -2.7208   -0.5481 C.3       1 <0>         0.0000
      7 C7          0.7469   -1.4824   -1.3611 C.3       1 <0>         0.0000
      8 C8          1.8318    0.0009    1.9360 C.3       1 <0>         0.0000
      9 C9          1.7938   -3.1419   -2.7630 C.3       1 <0>         0.0000
     10 N1          1.6130   -1.0119    0.9052 N.3       1 <0>         0.0000
     11 N2          2.0113   -2.1302   -1.7310 N.3       1 <0>         0.0000
     12 O1          3.9209    1.0552    1.4480 O.2       1 <0>         0.0000
     13 O2          1.9582    2.1106    0.9687 O.3       1 <0>         0.0000
     14 H1         -0.2056   -0.2027    2.8432 H         1 <0>         0.0000
     15 H2          0.6190    1.3718    3.2254 H         1 <0>         0.0000
     16 H3          2.6374    0.1213    4.0220 H         1 <0>         0.0000
     17 H4          1.8127   -1.4530    3.6403 H         1 <0>         0.0000
     18 H5          3.3109   -2.1520    1.4143 H         1 <0>         0.0000
     19 H6          3.6074   -0.9190    0.1845 H         1 <0>         0.0000
     20 H7          1.5818    0.3985   -0.6801 H         1 <0>         0.0000
     21 H8          0.0010    0.0014    0.0011 H         1 <0>         0.0000
     22 H9          3.6221   -3.1448   -0.8244 H         1 <0>         0.0000
     23 H10         2.0396   -3.5390   -0.1414 H         1 <0>         0.0000
     24 H11         0.0170   -2.2224   -1.0060 H         1 <0>         0.0000
     25 H12         0.3119   -0.9896   -2.2391 H         1 <0>         0.0000
     26 H13         2.7531   -3.6129   -3.0236 H         1 <0>         0.0000
     27 H14         1.1002   -3.9076   -2.3853 H         1 <0>         0.0000
     28 H15         1.3639   -2.6668   -3.6572 H         1 <0>         0.0000
     29 H16         2.5199    2.8418    0.6338 H         1 <0>         0.0000
@<TRIPOS>BOND
     1    1    8 1
     2    1   12 2
     3    1   13 1
     4    2    3 1
     5    2    8 1
     6    2   14 1
     7    2   15 1
     8    3    8 1
     9    3   16 1
    10    3   17 1
    11    4    6 1
    12    4   10 1
    13    4   18 1
    14    4   19 1
    15    5    7 1
    16    5   10 1
    17    5   20 1
    18    5   21 1
    19    6   11 1
    20    6   22 1
    21    6   23 1
    22    7   11 1
    23    7   24 1
    24    7   25 1
    25    8   10 1
    26    9   11 1
    27    9   26 1
    28    9   27 1
    29    9   28 1
    30   13   29 1
