@<TRIPOS>MOLECULE
*****
   33    35     0     0     0
SMALL
NO_CHARGES

@<TRIPOS>ATOM
      1 C1          0.8703   -4.1832   -2.2924 C.2       1 <0>         0.0000
      2 C2          1.8369   -0.3793    3.3913 C.3       1 <0>         0.0000
      3 C3          0.7038    0.4296    2.8341 C.3       1 <0>         0.0000
      4 C4          1.7640   -2.7440   -4.2175 C.3       1 <0>         0.0000
      5 C5          2.9222   -3.5349   -3.6839 C.3       1 <0>         0.0000
      6 C6          2.8769   -1.6606    0.5350 C.3       1 <0>         0.0000
      7 C7          0.9733   -0.4226   -0.2775 C.3       1 <0>         0.0000
      8 C8          2.6493   -2.7208   -0.5481 C.3       1 <0>         0.0000
      9 C9          0.7469   -1.4824   -1.3611 C.3       1 <0>         0.0000
     10 C10         1.8318    0.0009    1.9360 C.3       1 <0>         0.0000
     11 C11         1.7938   -3.1419   -2.7630 C.3       1 <0>         0.0000
     12 N1          1.6130   -1.0119    0.9052 N.3       1 <0>         0.0000
     13 N2          2.0113   -2.1302   -1.7310 N.3       1 <0>         0.0000
     14 O1          1.1935   -5.1662   -1.6422 O.2       1 <0>         0.0000
     15 O2         -0.3990   -3.9084   -2.6806 O.3       1 <0>         0.0000
     16 H1          2.5439    0.1227    4.0409 H         1 <0>         0.0000
     17 H2          1.6343   -1.4086    3.6614 H         1 <0>         0.0000
     18 H3         -0.2586   -0.0568    2.7302 H         1 <0>         0.0000
     19 H4          0.6485    1.4760    3.1084 H         1 <0>         0.0000
     20 H5          1.9411   -1.7065   -4.4757 H         1 <0>         0.0000
     21 H6          1.0721   -3.2513   -4.8796 H         1 <0>         0.0000
     22 H7          3.0052   -4.5714   -3.9894 H         1 <0>         0.0000
     23 H8          3.8743   -3.0267   -3.5859 H         1 <0>         0.0000
     24 H9          3.3113   -2.1519    1.4141 H         1 <0>         0.0000
     25 H10         3.6066   -0.9185    0.1843 H         1 <0>         0.0000
     26 H11         1.5813    0.3988   -0.6803 H         1 <0>         0.0000
     27 H12         0.0005    0.0008    0.0010 H         1 <0>         0.0000
     28 H13         3.6217   -3.1450   -0.8261 H         1 <0>         0.0000
     29 H14         2.0402   -3.5417   -0.1463 H         1 <0>         0.0000
     30 H15         0.0178   -2.2250   -1.0095 H         1 <0>         0.0000
     31 H16         0.3114   -0.9921   -2.2401 H         1 <0>         0.0000
     32 H17         2.5305    0.7760    1.6375 H         1 <0>         0.0000
     33 H18        -1.0315   -4.5941   -2.3771 H         1 <0>         0.0000
@<TRIPOS>BOND
     1    1   11 1
     2    1   14 2
     3    1   15 1
     4    2    3 1
     5    2   10 1
     6    2   16 1
     7    2   17 1
     8    3   10 1
     9    3   18 1
    10    3   19 1
    11    4    5 1
    12    4   11 1
    13    4   20 1
    14    4   21 1
    15    5   11 1
    16    5   22 1
    17    5   23 1
    18    6    8 1
    19    6   12 1
    20    6   24 1
    21    6   25 1
    22    7    9 1
    23    7   12 1
    24    7   26 1
    25    7   27 1
    26    8   13 1
    27    8   28 1
    28    8   29 1
    29    9   13 1
    30    9   30 1
    31    9   31 1
    32   10   12 1
    33   10   32 1
    34   11   13 1
    35   15   33 1
