@<TRIPOS>MOLECULE
*****
   34    34     0     0     0
SMALL
NO_CHARGES

@<TRIPOS>ATOM
      1 C1          0.6819    0.9163    1.5516 C.2       1 <0>         0.0000
      2 C2          0.8219   -0.6681    0.0554 C.2       1 <0>         0.0000
      3 C3         -1.3791    0.1318   -1.1012 C.2       1 <0>         0.0000
      4 C4          0.7099    1.0358    4.0195 C.3       1 <0>         0.0000
      5 C5         -1.7604   -2.3067   -3.9319 C.3       1 <0>         0.0000
      6 C6         -3.5787   -1.3647   -2.4845 C.3       1 <0>         0.0000
      7 C7         -2.2489    0.1498   -3.9766 C.3       1 <0>         0.0000
      8 C8          2.6720   -0.6107    1.7674 C.3       1 <0>         0.0000
      9 C9          1.0480    1.7552    2.7300 C.3       1 <0>         0.0000
     10 C10        -2.1968   -1.1010   -3.0917 C.3       1 <0>         0.0000
     11 N1         -0.3713    1.1311    0.8215 N.2       1 <0>         0.0000
     12 N2          1.4441   -0.1260    1.1652 N.am      1 <0>         0.0000
     13 N3         -0.3393    0.1518   -0.1488 N.am      1 <0>         0.0000
     14 N4         -1.2510   -0.8937   -2.0327 N.am      1 <0>         0.0000
     15 O1          1.1755   -1.6315   -0.6094 O.2       1 <0>         0.0000
     16 O2         -2.3074    0.9430   -1.1054 O.2       1 <0>         0.0000
     17 H1         -0.3614    0.8173    4.0661 H         1 <0>         0.0000
     18 H2          0.9752    1.6451    4.8901 H         1 <0>         0.0000
     19 H3          1.2566    0.0902    4.0978 H         1 <0>         0.0000
     20 H4         -0.7726   -2.1421   -4.3780 H         1 <0>         0.0000
     21 H5         -1.7080   -3.2176   -3.3254 H         1 <0>         0.0000
     22 H6         -2.4612   -2.4889   -4.7551 H         1 <0>         0.0000
     23 H7         -3.9128   -0.5148   -1.8780 H         1 <0>         0.0000
     24 H8         -3.5614   -2.2432   -1.8290 H         1 <0>         0.0000
     25 H9         -4.3298   -1.5395   -3.2629 H         1 <0>         0.0000
     26 H10        -2.5588    1.0290   -3.4000 H         1 <0>         0.0000
     27 H11        -1.2708    0.3651   -4.4209 H         1 <0>         0.0000
     28 H12        -2.9699    0.0274   -4.7932 H         1 <0>         0.0000
     29 H13         2.4332   -1.3628    2.5338 H         1 <0>         0.0000
     30 H14         3.3057   -1.0659    0.9920 H         1 <0>         0.0000
     31 H15         3.2085    0.2293    2.2328 H         1 <0>         0.0000
     32 H16         2.1185    1.9750    2.6807 H         1 <0>         0.0000
     33 H17         0.4970    2.6978    2.6616 H         1 <0>         0.0000
     34 H18        -0.4546   -1.5256   -1.9644 H         1 <0>         0.0000
@<TRIPOS>BOND
     1    1    9 1
     2    1   11 2
     3    1   12 1
     4    2   12 am
     5    2   13 am
     6    2   15 2
     7    3   13 am
     8    3   14 am
     9    3   16 2
    10    4    9 1
    11    4   17 1
    12    4   18 1
    13    4   19 1
    14    5   10 1
    15    5   20 1
    16    5   21 1
    17    5   22 1
    18    6   10 1
    19    6   23 1
    20    6   24 1
    21    6   25 1
    22    7   10 1
    23    7   26 1
    24    7   27 1
    25    7   28 1
    26    8   12 1
    27    8   29 1
    28    8   30 1
    29    8   31 1
    30    9   32 1
    31    9   33 1
    32   10   14 1
    33   11   13 1
    34   14   34 1
