@<TRIPOS>MOLECULE
*****
   25    26     0     0     0
SMALL
NO_CHARGES

@<TRIPOS>ATOM
      1 C1          0.2230    2.2288   -1.0583 C.3       1 <0>         0.0000
      2 C2         -0.3471    1.7743    0.3111 C.3       1 <0>         0.0000
      3 C3          1.1006    0.9495   -1.0644 C.3       1 <0>         0.0000
      4 C4          0.6175   -0.5546    1.0126 C.3       1 <0>         0.0000
      5 C5         -0.8624   -0.6525   -0.4855 C.3       1 <0>         0.0000
      6 C6          0.1323    0.3934   -0.0466 C.3       1 <0>         0.0000
      7 C7         -0.8439   -2.4865    1.1000 C.3       1 <0>         0.0000
      8 C8         -1.4913   -3.5893    0.2825 C.3       1 <0>         0.0000
      9 N1         -0.0200   -1.6524    0.2311 N.3       1 <0>         0.0000
     10 O1         -2.2644   -4.4203    1.1390 O.3       1 <0>         0.0000
     11 H1          0.7677    3.1764   -1.0532 H         1 <0>         0.0000
     12 H2         -0.5254    2.2502   -1.8589 H         1 <0>         0.0000
     13 H3          0.1701    2.2229    1.1669 H         1 <0>         0.0000
     14 H4         -1.4245    1.9095    0.4369 H         1 <0>         0.0000
     15 H5          1.1665    0.4329   -2.0257 H         1 <0>         0.0000
     16 H6          2.1134    1.1182   -0.6812 H         1 <0>         0.0000
     17 H7          1.7032   -0.6513    1.1120 H         1 <0>         0.0000
     18 H8          0.1946   -0.3710    2.0085 H         1 <0>         0.0000
     19 H9         -1.8747   -0.5112   -0.0858 H         1 <0>         0.0000
     20 H10        -0.9403   -0.8262   -1.5633 H         1 <0>         0.0000
     21 H11        -1.5973   -1.8491    1.5736 H         1 <0>         0.0000
     22 H12        -0.1991   -2.9144    1.8736 H         1 <0>         0.0000
     23 H13        -0.7212   -4.2102   -0.1857 H         1 <0>         0.0000
     24 H14        -2.1442   -3.1825   -0.4966 H         1 <0>         0.0000
     25 H15        -2.6588   -5.1084    0.5793 H         1 <0>         0.0000
@<TRIPOS>BOND
     1    1    3 1
     2    1    2 1
     3    1   11 1
     4    1   12 1
     5    2    6 1
     6    2   13 1
     7    2   14 1
     8    3    6 1
     9    3   15 1
    10    3   16 1
    11    4    6 1
    12    4    9 1
    13    4   17 1
    14    4   18 1
    15    5    6 1
    16    5    9 1
    17    5   19 1
    18    5   20 1
    19    7    8 1
    20    7    9 1
    21    7   21 1
    22    7   22 1
    23    8   10 1
    24    8   23 1
    25    8   24 1
    26   10   25 1
