@<TRIPOS>MOLECULE
*****
   24    24     0     0     0
SMALL
NO_CHARGES

@<TRIPOS>ATOM
      1 C1         -2.0068    3.8293    1.8364 C.ar      1 <0>         0.0000
      2 C2         -2.2298    3.1995    3.0608 C.ar      1 <0>         0.0000
      3 C3         -0.9964    3.3716    0.9906 C.ar      1 <0>         0.0000
      4 C4         -1.4425    2.1122    3.4395 C.ar      1 <0>         0.0000
      5 C5         -0.2091    2.2842    1.3692 C.ar      1 <0>         0.0000
      6 C6         -0.4321    1.6545    2.5937 C.ar      1 <0>         0.0000
      7 C7         -1.7194   -1.2656    2.9438 C.3       1 <0>         0.0000
      8 C8         -0.1796   -1.3784    1.0263 C.3       1 <0>         0.0000
      9 N1         -0.3254   -1.0690    2.4715 N.pl3     1 <0>         0.0000
     10 O1          1.8290    0.3806    2.4111 O.2       1 <0>         0.0000
     11 O2          0.5294    0.2342    4.5497 O.2       1 <0>         0.0000
     12 O3          0.7721    1.8541    0.5274 O.3       1 <0>         0.0000
     13 S1          0.5556    0.2741    3.0992 S.o2      1 <0>         0.0000
     14 H1         -2.6198    4.6760    1.5419 H         1 <0>         0.0000
     15 H2         -3.0167    3.5560    3.7190 H         1 <0>         0.0000
     16 H3         -0.8287    3.8673    0.0381 H         1 <0>         0.0000
     17 H4         -1.6258    1.6298    4.3958 H         1 <0>         0.0000
     18 H5         -1.7813   -1.0258    4.0156 H         1 <0>         0.0000
     19 H6         -2.3940   -0.6039    2.3807 H         1 <0>         0.0000
     20 H7         -2.0161   -2.3128    2.7848 H         1 <0>         0.0000
     21 H8          0.8650   -1.2198    0.7204 H         1 <0>         0.0000
     22 H9         -0.4591   -2.4269    0.8460 H         1 <0>         0.0000
     23 H10        -0.8370   -0.7180    0.4419 H         1 <0>         0.0000
     24 H11         0.7891    2.4004   -0.2739 H         1 <0>         0.0000
@<TRIPOS>BOND
     1    1    2 ar
     2    1    3 ar
     3    1   14 1
     4    2    4 ar
     5    2   15 1
     6    3    5 ar
     7    3   16 1
     8    4    6 ar
     9    4   17 1
    10    5    6 ar
    11    5   12 1
    12    6   13 1
    13    7    9 1
    14    7   18 1
    15    7   19 1
    16    7   20 1
    17    8    9 1
    18    8   21 1
    19    8   22 1
    20    8   23 1
    21    9   13 1
    22   10   13 2
    23   11   13 2
    24   12   24 1
