@<TRIPOS>MOLECULE
*****
   33    34     0     0     0
SMALL
NO_CHARGES

@<TRIPOS>ATOM
      1 C1         -2.9349    5.9952   -1.4478 C.ar      1 <0>         0.0000
      2 C2         -3.0929    4.8070   -2.1611 C.ar      1 <0>         0.0000
      3 C3         -0.5685    5.5550   -1.2387 C.ar      1 <0>         0.0000
      4 C4         -1.6726    6.3693   -0.9867 C.ar      1 <0>         0.0000
      5 C5         -1.9888    3.9927   -2.4131 C.ar      1 <0>         0.0000
      6 C6         -0.7266    4.3667   -1.9519 C.ar      1 <0>         0.0000
      7 C7          1.2711    1.0795   -1.3278 C.2       1 <0>         0.0000
      8 C8          0.9960   -0.1202   -0.4436 C.3       1 <0>         0.0000
      9 C9          2.0257   -0.2310    0.6755 C.3       1 <0>         0.0000
     10 C10         3.3397   -0.8764    0.2338 C.3       1 <0>         0.0000
     11 C11         4.1370   -0.0705   -0.7930 C.3       1 <0>         0.0000
     12 C12         3.4331    0.0796   -2.1375 C.3       1 <0>         0.0000
     13 N1          0.3952    2.0392   -1.3187 N.2       1 <0>         0.0000
     14 N2          2.4174    1.1088   -2.0869 N.pl3     1 <0>         0.0000
     15 O1          0.5844    2.9744   -3.6674 O.2       1 <0>         0.0000
     16 O2          1.8426    4.0442   -1.7653 O.2       1 <0>         0.0000
     17 F1         -1.5214    7.5101   -0.3012 F         1 <0>         0.0000
     18 F2         -2.1535    2.8517   -3.0970 F         1 <0>         0.0000
     19 S1          0.6782    3.3340   -2.2639 S.o2      1 <0>         0.0000
     20 H1         -3.7947    6.6290   -1.2514 H         1 <0>         0.0000
     21 H2         -4.0751    4.5152   -2.5207 H         1 <0>         0.0000
     22 H3          0.4097    5.8549   -0.8728 H         1 <0>         0.0000
     23 H4          0.0002    0.0009    0.0001 H         1 <0>         0.0000
     24 H5          0.9668   -1.0276   -1.0565 H         1 <0>         0.0000
     25 H6          2.2269    0.7542    1.1138 H         1 <0>         0.0000
     26 H7          1.6002   -0.8527    1.4729 H         1 <0>         0.0000
     27 H8          3.9689   -1.0135    1.1220 H         1 <0>         0.0000
     28 H9          3.1420   -1.8807   -0.1610 H         1 <0>         0.0000
     29 H10         4.4021    0.9123   -0.3839 H         1 <0>         0.0000
     30 H11         5.0854   -0.5959   -0.9635 H         1 <0>         0.0000
     31 H12         4.1736    0.3738   -2.8901 H         1 <0>         0.0000
     32 H13         3.0039   -0.8708   -2.4738 H         1 <0>         0.0000
     33 H14         2.5837    1.9257   -2.6688 H         1 <0>         0.0000
@<TRIPOS>BOND
     1    1    2 ar
     2    1    4 ar
     3    1   20 1
     4    2    5 ar
     5    2   21 1
     6    3    4 ar
     7    3    6 ar
     8    3   22 1
     9    4   17 1
    10    5    6 ar
    11    5   18 1
    12    6   19 1
    13    7    8 1
    14    7   13 2
    15    7   14 1
    16    8    9 1
    17    8   23 1
    18    8   24 1
    19    9   10 1
    20    9   25 1
    21    9   26 1
    22   10   11 1
    23   10   27 1
    24   10   28 1
    25   11   12 1
    26   11   29 1
    27   11   30 1
    28   12   14 1
    29   12   31 1
    30   12   32 1
    31   13   19 1
    32   14   33 1
    33   15   19 2
    34   16   19 2
