@<TRIPOS>MOLECULE
*****
   30    30     0     0     0
SMALL
NO_CHARGES

@<TRIPOS>ATOM
      1 C1          3.5330   -0.0210    3.0689 C.ar      1 <0>         0.0000
      2 C2          3.6940   -2.1784    1.9933 C.ar      1 <0>         0.0000
      3 C3          4.8783   -0.0998    3.4285 C.ar      1 <0>         0.0000
      4 C4          5.0394   -2.2572    2.3529 C.ar      1 <0>         0.0000
      5 C5          2.9408   -1.0603    2.3513 C.ar      1 <0>         0.0000
      6 C6          5.6316   -1.2179    3.0705 C.ar      1 <0>         0.0000
      7 C7          0.3624   -0.5894    4.1651 C.2       1 <0>         0.0000
      8 C8          1.4847   -0.9748    1.9614 C.3       1 <0>         0.0000
      9 C9          7.3361   -0.6311    4.6216 C.3       1 <0>         0.0000
     10 C10         8.5097   -1.3694    5.2253 C.3       1 <0>         0.0000
     11 C11         0.5461   -1.5721    3.0179 C.3       1 <0>         0.0000
     12 N1         -0.7222   -1.9382    2.4388 N.3       1 <0>         0.0000
     13 O1         -0.5149    0.2679    4.1755 O.2       1 <0>         0.0000
     14 O2          1.2408   -0.7358    5.1857 O.3       1 <0>         0.0000
     15 O3          6.9447   -1.2941    3.4204 O.3       1 <0>         0.0000
     16 F1          8.1175   -2.6382    5.5245 F         1 <0>         0.0000
     17 H1          2.9537    0.8538    3.3520 H         1 <0>         0.0000
     18 H2          3.2408   -2.9930    1.4343 H         1 <0>         0.0000
     19 H3          5.3341    0.7132    3.9873 H         1 <0>         0.0000
     20 H4          5.6208   -3.1305    2.0708 H         1 <0>         0.0000
     21 H5          1.3587   -1.4920    1.0008 H         1 <0>         0.0000
     22 H6          1.2145    0.0715    1.7638 H         1 <0>         0.0000
     23 H7          6.4852   -0.6336    5.3089 H         1 <0>         0.0000
     24 H8          7.6104    0.3986    4.3751 H         1 <0>         0.0000
     25 H9          8.8530   -0.9026    6.1527 H         1 <0>         0.0000
     26 H10         9.3396   -1.4382    4.5172 H         1 <0>         0.0000
     27 H11         0.9618   -2.4905    3.4483 H         1 <0>         0.0000
     28 H12        -0.5754   -2.6323    1.7360 H         1 <0>         0.0000
     29 H13        -1.3169   -2.3030    3.1532 H         1 <0>         0.0000
     30 H14         1.8965   -1.4545    5.0650 H         1 <0>         0.0000
@<TRIPOS>BOND
     1    1    3 ar
     2    1    5 ar
     3    1   17 1
     4    2    4 ar
     5    2    5 ar
     6    2   18 1
     7    3    6 ar
     8    3   19 1
     9    4    6 ar
    10    4   20 1
    11    5    8 1
    12    6   15 1
    13    7   11 1
    14    7   13 2
    15    7   14 1
    16    8   11 1
    17    8   21 1
    18    8   22 1
    19    9   10 1
    20    9   15 1
    21    9   23 1
    22    9   24 1
    23   10   16 1
    24   10   25 1
    25   10   26 1
    26   11   12 1
    27   11   27 1
    28   12   28 1
    29   12   29 1
    30   14   30 1
