@<TRIPOS>MOLECULE
*****
   12    11     0     0     0
SMALL
NO_CHARGES

@<TRIPOS>ATOM
      1 C1         -1.0338    0.5358    2.1695 C.3       1 <0>         0.0000
      2 C2         -0.4863   -1.8999   -0.6303 C.3       1 <0>         0.0000
      3 N1          0.0050    0.2221    0.1588 N.2       1 <0>         0.0000
      4 N2          0.1947   -0.5998   -0.7945 N.pl3     1 <0>         0.0000
      5 O1          0.8991   -0.4005   -1.8423 O.3       1 <0>         0.0000
      6 O2         -0.8276   -0.3868    1.1110 O.3       1 <0>         0.0000
      7 Br1         0.6043   -3.1456    0.3945 Br        1 <0>         0.0000
      8 Br2        -1.0456   -2.6290   -2.3471 Br        1 <0>         0.0000
      9 H1         -1.6806    0.0849    2.9261 H         1 <0>         0.0000
     10 H2         -1.4944    1.4457    1.7765 H         1 <0>         0.0000
     11 H3         -0.0690    0.7830    2.6187 H         1 <0>         0.0000
     12 H4         -1.4049   -1.7608   -0.0516 H         1 <0>         0.0000
@<TRIPOS>BOND
     1    1    6 1
     2    1    9 1
     3    1   10 1
     4    1   11 1
     5    2    4 1
     6    2    7 1
     7    2    8 1
     8    2   12 1
     9    3    4 2
    10    3    6 1
    11    4    5 1
