@<TRIPOS>MOLECULE
*****
   35    35     0     0     0
SMALL
NO_CHARGES

@<TRIPOS>ATOM
      1 C1         -0.7652   -1.1949   -0.3397 C.3       1 <0>         0.0000
      2 C2         -0.5297   -2.6887   -0.5061 C.3       1 <0>         0.0000
      3 C3          0.5935   -0.6132    0.0257 C.3       1 <0>         0.0000
      4 C4          0.9823   -2.8129   -0.6195 C.3       1 <0>         0.0000
      5 C5          1.4967   -4.1876   -0.2236 C.3       1 <0>         0.0000
      6 C6          3.0048   -4.2749   -0.3912 C.3       1 <0>         0.0000
      7 C7          7.0909   -7.7633    0.1910 C.3       1 <0>         0.0000
      8 C8          3.5040   -5.6648   -0.0303 C.3       1 <0>         0.0000
      9 C9          5.6031   -7.4624    0.2704 C.3       1 <0>         0.0000
     10 C10         7.3948   -9.1968    0.5652 C.3       1 <0>         0.0000
     11 N1          1.4724   -1.7596    0.2813 N.3       1 <0>         0.0000
     12 O1          5.8666   -4.9164    0.8007 O.2       1 <0>         0.0000
     13 O2          5.5922   -5.6389   -1.6023 O.2       1 <0>         0.0000
     14 F1          7.0273   -9.4415    1.8423 F         1 <0>         0.0000
     15 F2          6.7286  -10.0639   -0.2263 F         1 <0>         0.0000
     16 F3          8.7139   -9.4633    0.4600 F         1 <0>         0.0000
     17 S1          5.2570   -5.7814   -0.1954 S.o2      1 <0>         0.0000
     18 H1         -1.1343   -0.7519   -1.2712 H         1 <0>         0.0000
     19 H2         -1.5097   -1.0082    0.4415 H         1 <0>         0.0000
     20 H3         -0.9089   -3.2202    0.3757 H         1 <0>         0.0000
     21 H4         -1.0455   -3.0878   -1.3852 H         1 <0>         0.0000
     22 H5          0.9848   -0.0202   -0.8095 H         1 <0>         0.0000
     23 H6          0.5354    0.0374    0.9033 H         1 <0>         0.0000
     24 H7          1.2958   -2.5884   -1.6496 H         1 <0>         0.0000
     25 H8          1.2111   -4.3661    0.8125 H         1 <0>         0.0000
     26 H9          0.9943   -4.9258   -0.8478 H         1 <0>         0.0000
     27 H10         3.4997   -3.5264    0.2406 H         1 <0>         0.0000
     28 H11         3.2856   -4.0352   -1.4245 H         1 <0>         0.0000
     29 H12         7.6430   -7.0899    0.8569 H         1 <0>         0.0000
     30 H13         7.4557   -7.5689   -0.8243 H         1 <0>         0.0000
     31 H14         3.2652   -5.9162    1.0074 H         1 <0>         0.0000
     32 H15         3.0717   -6.4263   -0.6862 H         1 <0>         0.0000
     33 H16         5.0298   -8.1031   -0.4061 H         1 <0>         0.0000
     34 H17         5.2227   -7.5943    1.2878 H         1 <0>         0.0000
     35 H18         2.4423   -1.5266    0.0755 H         1 <0>         0.0000
@<TRIPOS>BOND
     1    1    2 1
     2    1    3 1
     3    1   18 1
     4    1   19 1
     5    2    4 1
     6    2   20 1
     7    2   21 1
     8    3   11 1
     9    3   22 1
    10    3   23 1
    11    4    5 1
    12    4   11 1
    13    4   24 1
    14    5    6 1
    15    5   25 1
    16    5   26 1
    17    6    8 1
    18    6   27 1
    19    6   28 1
    20    7    9 1
    21    7   10 1
    22    7   29 1
    23    7   30 1
    24    8   17 1
    25    8   31 1
    26    8   32 1
    27    9   17 1
    28    9   33 1
    29    9   34 1
    30   10   14 1
    31   10   15 1
    32   10   16 1
    33   11   35 1
    34   12   17 2
    35   13   17 2
