@<TRIPOS>MOLECULE
*****
   30    31     0     0     0
SMALL
NO_CHARGES

@<TRIPOS>ATOM
      1 C1          4.5682   -2.7748    1.3684 C.ar      1 <0>         0.0000
      2 C2          1.9485   -4.5988    7.8689 C.ar      1 <0>         0.0000
      3 C3          3.2997   -3.3399    1.5001 C.ar      1 <0>         0.0000
      4 C4          4.9234   -1.6702    2.1424 C.ar      1 <0>         0.0000
      5 C5          0.6920   -4.7316    7.2778 C.ar      1 <0>         0.0000
      6 C6          2.8435   -3.6389    7.3965 C.ar      1 <0>         0.0000
      7 C7          2.3865   -2.8004    2.4060 C.ar      1 <0>         0.0000
      8 C8          4.0103   -1.1307    3.0483 C.ar      1 <0>         0.0000
      9 C9          0.3306   -3.9045    6.2144 C.ar      1 <0>         0.0000
     10 C10         2.4821   -2.8118    6.3331 C.ar      1 <0>         0.0000
     11 C11         2.7418   -1.6958    3.1801 C.ar      1 <0>         0.0000
     12 C12         1.2256   -2.9446    5.7420 C.ar      1 <0>         0.0000
     13 C13        -0.4594   -2.2562    4.0546 C.3       1 <0>         0.0000
     14 C14         1.7649   -1.1195    4.1488 C.3       1 <0>         0.0000
     15 N1          0.8616   -2.1127    4.6720 N.pl3     1 <0>         0.0000
     16 H1          5.2789   -3.1940    0.6621 H         1 <0>         0.0000
     17 H2          2.2300   -5.2427    8.6972 H         1 <0>         0.0000
     18 H3          3.0224   -4.1992    0.8968 H         1 <0>         0.0000
     19 H4          5.9107   -1.2294    2.0392 H         1 <0>         0.0000
     20 H5         -0.0049   -5.4792    7.6459 H         1 <0>         0.0000
     21 H6          3.8215   -3.5356    7.8567 H         1 <0>         0.0000
     22 H7          1.4005   -3.2473    2.5020 H         1 <0>         0.0000
     23 H8          4.2958   -0.2700    3.6475 H         1 <0>         0.0000
     24 H9         -0.6512   -4.0173    5.7615 H         1 <0>         0.0000
     25 H10         3.1867   -2.0669    5.9724 H         1 <0>         0.0000
     26 H11        -0.5649   -1.5256    3.2391 H         1 <0>         0.0000
     27 H12        -0.5669   -3.2739    3.6513 H         1 <0>         0.0000
     28 H13        -1.2385   -2.0771    4.8102 H         1 <0>         0.0000
     29 H14         2.2797   -0.6587    5.0034 H         1 <0>         0.0000
     30 H15         1.1539   -0.3330    3.6850 H         1 <0>         0.0000
@<TRIPOS>BOND
     1    1    4 ar
     2    1    3 ar
     3    1   16 1
     4    2    6 ar
     5    2    5 ar
     6    2   17 1
     7    3    7 ar
     8    3   18 1
     9    4    8 ar
    10    4   19 1
    11    5    9 ar
    12    5   20 1
    13    6   10 ar
    14    6   21 1
    15    7   11 ar
    16    7   22 1
    17    8   11 ar
    18    8   23 1
    19    9   12 ar
    20    9   24 1
    21   10   12 ar
    22   10   25 1
    23   11   14 1
    24   12   15 1
    25   13   15 1
    26   13   26 1
    27   13   27 1
    28   13   28 1
    29   14   15 1
    30   14   29 1
    31   14   30 1
