@<TRIPOS>MOLECULE
*****
   55    58     0     0     0
SMALL
NO_CHARGES

@<TRIPOS>ATOM
      1 C1          0.6991   -2.4947    3.2037 C.ar      1 <0>         0.0000
      2 C2         -1.7212   -1.3158    2.4963 C.ar      1 <0>         0.0000
      3 C3          0.6128   -1.7514    2.0147 C.ar      1 <0>         0.0000
      4 C4         -0.6109   -1.1418    1.6558 C.ar      1 <0>         0.0000
      5 C5         -1.6201   -2.0578    3.6750 C.ar      1 <0>         0.0000
      6 C6         -0.4120   -2.6474    4.0287 C.ar      1 <0>         0.0000
      7 C7          1.8693   -1.5862    1.1882 C.3       1 <0>         0.0000
      8 C8          1.7101   -0.7975   -0.1193 C.3       1 <0>         0.0000
      9 C9          1.7980    2.9048   -2.6871 C.3       1 <0>         0.0000
     10 C10         0.6772    2.7410   -3.7063 C.3       1 <0>         0.0000
     11 C11        -1.8509    0.5826    0.1262 C.3       1 <0>         0.0000
     12 C12         1.9089    1.7034   -1.7503 C.3       1 <0>         0.0000
     13 C13        -0.6553    2.4141   -3.0321 C.3       1 <0>         0.0000
     14 C14        -1.9454    1.0675   -1.3307 C.3       1 <0>         0.0000
     15 C15        -0.6990   -0.4037    0.3286 C.3       1 <0>         0.0000
     16 C16         0.6531    0.3026    0.0432 C.3       1 <0>         0.0000
     17 C17         0.5652    1.3827   -1.0729 C.3       1 <0>         0.0000
     18 C18        -0.5899    1.1772   -2.0902 C.3       1 <0>         0.0000
     19 C19        -0.3889   -0.0795   -2.9715 C.3       1 <0>         0.0000
     20 C20        -2.9152   -1.2223    5.4862 C.3       1 <0>         0.0000
     21 N1          0.0740   -3.8224    7.7396 N.pl3     1 <0>         0.0000
     22 O1          0.6239   -1.5715    6.6565 O.2       1 <0>         0.0000
     23 O2          2.0209   -3.5980    6.0960 O.2       1 <0>         0.0000
     24 O3         -2.7181   -2.2023    4.4694 O.3       1 <0>         0.0000
     25 O4         -0.3022   -3.3728    5.1757 O.3       1 <0>         0.0000
     26 S1          0.7337   -2.9942    6.3892 S.o2      1 <0>         0.0000
     27 H1          1.6443   -2.9528    3.4877 H         1 <0>         0.0000
     28 H2         -2.6854   -0.8839    2.2462 H         1 <0>         0.0000
     29 H3          2.6019   -1.0586    1.8135 H         1 <0>         0.0000
     30 H4          2.2899   -2.5727    0.9577 H         1 <0>         0.0000
     31 H5          2.6910   -0.3924   -0.3875 H         1 <0>         0.0000
     32 H6          1.4224   -1.4802   -0.9278 H         1 <0>         0.0000
     33 H7          2.7508    3.0550   -3.2074 H         1 <0>         0.0000
     34 H8          1.6167    3.8094   -2.0935 H         1 <0>         0.0000
     35 H9          0.5738    3.6671   -4.2836 H         1 <0>         0.0000
     36 H10         0.9415    1.9578   -4.4254 H         1 <0>         0.0000
     37 H11        -1.7222    1.4435    0.7953 H         1 <0>         0.0000
     38 H12        -2.8178    0.1368    0.3825 H         1 <0>         0.0000
     39 H13         2.2749    0.8409   -2.3180 H         1 <0>         0.0000
     40 H14         2.6646    1.9267   -0.9875 H         1 <0>         0.0000
     41 H15        -0.9654    3.2962   -2.4555 H         1 <0>         0.0000
     42 H16        -1.4234    2.2658   -3.8016 H         1 <0>         0.0000
     43 H17        -2.6188    0.3971   -1.8813 H         1 <0>         0.0000
     44 H18        -2.4596    2.0371   -1.3121 H         1 <0>         0.0000
     45 H19        -0.8575   -1.2111   -0.3975 H         1 <0>         0.0000
     46 H20         0.9407    0.8689    0.9447 H         1 <0>         0.0000
     47 H21         0.2999    2.3069   -0.5311 H         1 <0>         0.0000
     48 H22        -0.3412   -0.9502   -2.3311 H         1 <0>         0.0000
     49 H23         0.5348    0.0271   -3.5247 H         1 <0>         0.0000
     50 H24        -1.2244   -0.1639   -3.6537 H         1 <0>         0.0000
     51 H25        -3.8245   -1.4547    6.0460 H         1 <0>         0.0000
     52 H26        -2.9989   -0.2331    5.0289 H         1 <0>         0.0000
     53 H27        -2.0588   -1.2366    6.1645 H         1 <0>         0.0000
     54 H28        -0.9406   -3.7352    7.8811 H         1 <0>         0.0000
     55 H29         0.5994   -3.7554    8.6207 H         1 <0>         0.0000
@<TRIPOS>BOND
     1    1    3 ar
     2    1    6 ar
     3    1   27 1
     4    2    4 ar
     5    2    5 ar
     6    2   28 1
     7    3    4 ar
     8    3    7 1
     9    4   15 1
    10    5    6 ar
    11    5   24 1
    12    6   25 1
    13    7    8 1
    14    7   29 1
    15    7   30 1
    16    8   16 1
    17    8   31 1
    18    8   32 1
    19    9   10 1
    20    9   12 1
    21    9   33 1
    22    9   34 1
    23   10   13 1
    24   10   35 1
    25   10   36 1
    26   11   14 1
    27   11   15 1
    28   11   37 1
    29   11   38 1
    30   12   17 1
    31   12   39 1
    32   12   40 1
    33   13   18 1
    34   13   41 1
    35   13   42 1
    36   14   18 1
    37   14   43 1
    38   14   44 1
    39   15   16 1
    40   15   45 1
    41   16   17 1
    42   16   46 1
    43   17   18 1
    44   17   47 1
    45   18   19 1
    46   19   48 1
    47   19   49 1
    48   19   50 1
    49   20   24 1
    50   20   51 1
    51   20   52 1
    52   20   53 1
    53   21   26 1
    54   21   54 1
    55   21   55 1
    56   22   26 2
    57   23   26 2
    58   25   26 1
