@<TRIPOS>MOLECULE
*****
   27    28     0     0     0
SMALL
NO_CHARGES

@<TRIPOS>ATOM
      1 C1          2.9920   -0.9789    2.0594 C.ar      1 <0>         0.0000
      2 C2          2.9840   -0.2885   -0.2558 C.ar      1 <0>         0.0000
      3 C3          2.2331    0.1418    2.3963 C.ar      1 <0>         0.0000
      4 C4          2.2250    0.8322    0.0810 C.ar      1 <0>         0.0000
      5 C5          3.3675   -1.1941    0.7333 C.ar      1 <0>         0.0000
      6 C6          1.8496    1.0474    1.4071 C.ar      1 <0>         0.0000
      7 C7          1.8542    7.0130    3.1884 C.2       1 <0>         0.0000
      8 C8          1.6105    4.7742    2.5203 C.2       1 <0>         0.0000
      9 C9          0.3490    6.9258    3.1670 C.3       1 <0>         0.0000
     10 C10         4.1796   -2.3920    0.3730 C.3       1 <0>         0.0000
     11 N1          2.0123    3.6014    2.1691 N.2       1 <0>         0.0000
     12 N2          2.4340    5.8149    2.8287 N.am      1 <0>         0.0000
     13 O1          2.4634    8.0327    3.4919 O.2       1 <0>         0.0000
     14 O2          0.1578    2.8160    0.6258 O.2       1 <0>         0.0000
     15 O3          0.1652    2.1405    3.0526 O.2       1 <0>         0.0000
     16 S1         -0.0549    5.2325    2.6617 S.3       1 <0>         0.0000
     17 S2          0.8978    2.4491    1.8282 S.o2      1 <0>         0.0000
     18 H1          3.2865   -1.6789    2.8369 H         1 <0>         0.0000
     19 H2          3.2723   -0.4478   -1.2915 H         1 <0>         0.0000
     20 H3          1.9463    0.3003    3.4326 H         1 <0>         0.0000
     21 H4          1.9320    1.5316   -0.6975 H         1 <0>         0.0000
     22 H5         -0.0447    7.1245    4.1666 H         1 <0>         0.0000
     23 H6         -0.0534    7.6430    2.4473 H         1 <0>         0.0000
     24 H7          3.5252   -3.2362    0.1236 H         1 <0>         0.0000
     25 H8          4.8288   -2.1888   -0.4886 H         1 <0>         0.0000
     26 H9          4.8353   -2.6925    1.2006 H         1 <0>         0.0000
     27 H10         3.4429    5.7114    2.7946 H         1 <0>         0.0000
@<TRIPOS>BOND
     1    1    3 ar
     2    1    5 ar
     3    1   18 1
     4    2    4 ar
     5    2    5 ar
     6    2   19 1
     7    3    6 ar
     8    3   20 1
     9    4    6 ar
    10    4   21 1
    11    5   10 1
    12    6   17 1
    13    7    9 1
    14    7   12 am
    15    7   13 2
    16    8   11 2
    17    8   12 1
    18    8   16 1
    19    9   16 1
    20    9   22 1
    21    9   23 1
    22   10   24 1
    23   10   25 1
    24   10   26 1
    25   11   17 1
    26   12   27 1
    27   14   17 2
    28   15   17 2
