@<TRIPOS>MOLECULE
*****
   25    25     0     0     0
SMALL
NO_CHARGES

@<TRIPOS>ATOM
      1 C1          1.0343    0.5546    3.0100 C.2       1 <0>         0.0000
      2 C2          0.9710   -0.1877    1.8899 C.2       1 <0>         0.0000
      3 C3          3.1936   -0.6138    2.4587 C.2       1 <0>         0.0000
      4 C4         -0.2461    0.7077   -0.0702 C.2       1 <0>         0.0000
      5 C5         -1.5418    1.4533   -1.9060 C.3       1 <0>         0.0000
      6 C6          6.8695   -1.4592    3.1926 C.3       1 <0>         0.0000
      7 C7         -0.2193   -0.3490    1.0125 C.3       1 <0>         0.0000
      8 N1          4.4010   -1.0578    2.4563 N.2       1 <0>         0.0000
      9 N2          2.1559   -0.8308    1.5848 N.pl3     1 <0>         0.0000
     10 O1          0.5830    1.5944   -0.2226 O.2       1 <0>         0.0000
     11 O2          5.6846    0.8231    3.5625 O.2       1 <0>         0.0000
     12 O3          4.9547   -1.1695    4.9242 O.2       1 <0>         0.0000
     13 O4         -1.3606    0.5165   -0.8391 O.3       1 <0>         0.0000
     14 S1          2.6231    0.4783    3.7505 S.3       1 <0>         0.0000
     15 S2          5.3942   -0.5953    3.6657 S.o2      1 <0>         0.0000
     16 H1          0.2281    1.1385    3.4308 H         1 <0>         0.0000
     17 H2         -2.4559    1.2109   -2.4534 H         1 <0>         0.0000
     18 H3         -0.6806    1.4130   -2.5777 H         1 <0>         0.0000
     19 H4         -1.6270    2.4583   -1.4860 H         1 <0>         0.0000
     20 H5          7.6465   -1.2418    3.9272 H         1 <0>         0.0000
     21 H6          6.6511   -2.5280    3.1719 H         1 <0>         0.0000
     22 H7          7.1703   -1.1108    2.2034 H         1 <0>         0.0000
     23 H8         -1.1310   -0.2535    1.6107 H         1 <0>         0.0000
     24 H9         -0.1894   -1.3394    0.5477 H         1 <0>         0.0000
     25 H10         2.2167   -1.4157    0.7610 H         1 <0>         0.0000
@<TRIPOS>BOND
     1    1    2 2
     2    1   14 1
     3    1   16 1
     4    2    7 1
     5    2    9 1
     6    3    8 2
     7    3    9 1
     8    3   14 1
     9    4    7 1
    10    4   10 2
    11    4   13 1
    12    5   13 1
    13    5   17 1
    14    5   18 1
    15    5   19 1
    16    6   15 1
    17    6   20 1
    18    6   21 1
    19    6   22 1
    20    7   23 1
    21    7   24 1
    22    8   15 1
    23    9   25 1
    24   11   15 2
    25   12   15 2
