@<TRIPOS>MOLECULE
*****
   41    45     0     0     0
SMALL
NO_CHARGES

@<TRIPOS>ATOM
      1 C1         -6.8549    2.0404   -1.7178 C.ar      1 <0>         0.0000
      2 C2         -5.6209    2.5541   -2.1167 C.ar      1 <0>         0.0000
      3 C3         -6.9095    0.9818   -0.8112 C.ar      1 <0>         0.0000
      4 C4         -4.4416    2.0092   -1.6089 C.ar      1 <0>         0.0000
      5 C5         -5.7302    0.4370   -0.3033 C.ar      1 <0>         0.0000
      6 C6         -2.4251    4.4609   -0.1054 C.ar      1 <0>         0.0000
      7 C7         -3.6009    3.2642    1.6179 C.ar      1 <0>         0.0000
      8 C8         -3.2785    5.5272    0.1281 C.ar      1 <0>         0.0000
      9 C9         -4.4015    4.3841    1.7744 C.ar      1 <0>         0.0000
     10 C10        -2.5961    3.3114    0.6580 C.ar      1 <0>         0.0000
     11 C11        -0.8218    0.1585    0.0325 C.2       1 <0>         0.0000
     12 C12        -4.4962    0.9506   -0.7022 C.ar      1 <0>         0.0000
     13 C13        -2.0381    0.8745    0.0824 C.2       1 <0>         0.0000
     14 C14        -1.7327    2.1698    0.4543 C.2       1 <0>         0.0000
     15 C15         0.1950    1.0575    0.3541 C.2       1 <0>         0.0000
     16 C16        -0.5043   -1.2335   -0.2895 C.2       1 <0>         0.0000
     17 C17         1.6755    0.7386    0.3289 C.3       1 <0>         0.0000
     18 C18         2.1682   -1.9414   -0.4248 C.3       1 <0>         0.0000
     19 C19         0.8781   -1.5484    0.1586 C.3       1 <0>         0.0000
     20 C20         1.8111   -0.4913   -0.5309 C.3       1 <0>         0.0000
     21 N1         -4.2657    5.5185    1.0517 N.ar      1 <0>         0.0000
     22 N2         -0.3711    2.2699    0.6206 N.pl3     1 <0>         0.0000
     23 N3         -3.2706    0.3847   -0.1749 N.pl3     1 <0>         0.0000
     24 O1         -1.2569   -2.0563   -0.7877 O.2       1 <0>         0.0000
     25 H1         -7.7734    2.4648   -2.1130 H         1 <0>         0.0000
     26 H2         -5.5786    3.3785   -2.8228 H         1 <0>         0.0000
     27 H3         -7.8702    0.5821   -0.5006 H         1 <0>         0.0000
     28 H4         -3.4857    2.4175   -1.9272 H         1 <0>         0.0000
     29 H5         -5.7836   -0.3877    0.4027 H         1 <0>         0.0000
     30 H6         -1.6524    4.5354   -0.8637 H         1 <0>         0.0000
     31 H7         -3.7649    2.3850    2.2328 H         1 <0>         0.0000
     32 H8         -3.1868    6.4468   -0.4405 H         1 <0>         0.0000
     33 H9         -5.1993    4.3982    2.5098 H         1 <0>         0.0000
     34 H10         2.2359    1.5687   -0.1140 H         1 <0>         0.0000
     35 H11         2.0497    0.5683    1.3446 H         1 <0>         0.0000
     36 H12         2.9787   -2.2048    0.2455 H         1 <0>         0.0000
     37 H13         2.1512   -2.5374   -1.3303 H         1 <0>         0.0000
     38 H14         0.9054   -1.6678    1.2438 H         1 <0>         0.0000
     39 H15         1.6313   -0.2060   -1.5693 H         1 <0>         0.0000
     40 H16         0.1308    3.1108    0.8731 H         1 <0>         0.0000
     41 H17        -3.4253   -0.6230    0.0359 H         1 <0>         0.0000
@<TRIPOS>BOND
     1    1    3 ar
     2    1    2 ar
     3    1   25 1
     4    2    4 ar
     5    2   26 1
     6    3    5 ar
     7    3   27 1
     8    4   12 ar
     9    4   28 1
    10    5   12 ar
    11    5   29 1
    12    6    8 ar
    13    6   10 ar
    14    6   30 1
    15    7    9 ar
    16    7   10 ar
    17    7   31 1
    18    8   21 ar
    19    8   32 1
    20    9   21 ar
    21    9   33 1
    22   10   14 1
    23   11   13 1
    24   11   15 2
    25   11   16 1
    26   12   23 1
    27   13   14 2
    28   13   23 1
    29   14   22 1
    30   15   17 1
    31   15   22 1
    32   16   19 1
    33   16   24 2
    34   17   20 1
    35   17   34 1
    36   17   35 1
    37   18   19 1
    38   18   20 1
    39   18   36 1
    40   18   37 1
    41   19   20 1
    42   19   38 1
    43   20   39 1
    44   22   40 1
    45   23   41 1
