@<TRIPOS>MOLECULE
*****
   26    26     0     0     0
SMALL
NO_CHARGES

@<TRIPOS>ATOM
      1 C1          1.8851   -1.0363   -0.1124 C.ar      1 <0>         0.0000
      2 C2          0.8066   -0.4630    0.5610 C.ar      1 <0>         0.0000
      3 C3          2.9210   -1.6309    0.6081 C.ar      1 <0>         0.0000
      4 C4          0.7638   -0.4841    1.9551 C.ar      1 <0>         0.0000
      5 C5          2.8783   -1.6520    2.0022 C.ar      1 <0>         0.0000
      6 C6          1.7997   -1.0786    2.6757 C.ar      1 <0>         0.0000
      7 C7          6.4224   -1.7522    4.0035 C.3       1 <0>         0.0000
      8 C8          4.0043   -2.2951    2.7440 C.3       1 <0>         0.0000
      9 N1          0.2332   -0.2753    4.6770 N.pl3     1 <0>         0.0000
     10 O1          1.5802   -2.4650    4.8673 O.2       1 <0>         0.0000
     11 O2          2.7960   -0.2595    4.9386 O.2       1 <0>         0.0000
     12 O3          6.1141   -1.5027    1.4198 O.2       1 <0>         0.0000
     13 O4          4.9500    0.1330    2.9499 O.2       1 <0>         0.0000
     14 S1          1.7149   -1.0859    4.4236 S.o2      1 <0>         0.0000
     15 S2          5.3969   -1.2179    2.6519 S.o2      1 <0>         0.0000
     16 H1          1.9182   -1.0189   -1.1980 H         1 <0>         0.0000
     17 H2          0.0006    0.0008   -0.0002 H         1 <0>         0.0000
     18 H3          3.7567   -2.0746    0.0736 H         1 <0>         0.0000
     19 H4         -0.0820   -0.0334    2.4678 H         1 <0>         0.0000
     20 H5          7.3193   -1.1310    4.0218 H         1 <0>         0.0000
     21 H6          5.8584   -1.6368    4.9303 H         1 <0>         0.0000
     22 H7          6.6853   -2.7989    3.8433 H         1 <0>         0.0000
     23 H8          4.2911   -3.2574    2.3073 H         1 <0>         0.0000
     24 H9          3.7668   -2.4515    3.8015 H         1 <0>         0.0000
     25 H10        -0.5668   -0.8275    5.0095 H         1 <0>         0.0000
     26 H11         0.2652    0.6789    5.0562 H         1 <0>         0.0000
@<TRIPOS>BOND
     1    1    2 ar
     2    1    3 ar
     3    1   16 1
     4    2    4 ar
     5    2   17 1
     6    3    5 ar
     7    3   18 1
     8    4    6 ar
     9    4   19 1
    10    5    6 ar
    11    5    8 1
    12    6   14 1
    13    7   15 1
    14    7   20 1
    15    7   21 1
    16    7   22 1
    17    8   15 1
    18    8   23 1
    19    8   24 1
    20    9   14 1
    21    9   25 1
    22    9   26 1
    23   10   14 2
    24   11   14 2
    25   12   15 2
    26   13   15 2
