@<TRIPOS>MOLECULE
*****
   16    16     0     0     0
SMALL
NO_CHARGES

@<TRIPOS>ATOM
      1 C1         -0.2528    0.8087   -2.0577 C.2       1 <0>         0.0000
      2 C2         -0.9783    0.4538   -3.1737 C.2       1 <0>         0.0000
      3 C3         -0.4682   -0.0882   -0.9718 C.2       1 <0>         0.0000
      4 C4         -1.3504   -1.0945   -1.2990 C.2       1 <0>         0.0000
      5 N1          1.7300   -0.8241    0.3441 N.pl3     1 <0>         0.0000
      6 N2         -1.8179   -2.1592   -0.5127 N.pl3     1 <0>         0.0000
      7 O1         -1.1894   -3.2544   -0.5076 O.3       1 <0>         0.0000
      8 O2         -2.8625   -2.0111    0.1813 O.2       1 <0>         0.0000
      9 O3          0.6700    1.4893    0.7572 O.2       1 <0>         0.0000
     10 O4         -0.5129   -0.5747    1.5867 O.2       1 <0>         0.0000
     11 S1         -1.9146   -0.9556   -2.9098 S.3       1 <0>         0.0000
     12 S2          0.2935    0.0871    0.5572 S.o2      1 <0>         0.0000
     13 H1          0.3998    1.6720   -2.0282 H         1 <0>         0.0000
     14 H2         -1.0035    0.9533   -4.1319 H         1 <0>         0.0000
     15 H3          1.6555   -1.8480    0.3054 H         1 <0>         0.0000
     16 H4          2.4659   -0.4383   -0.2600 H         1 <0>         0.0000
@<TRIPOS>BOND
     1    1    2 2
     2    1    3 1
     3    1   13 1
     4    2   11 1
     5    2   14 1
     6    3    4 2
     7    3   12 1
     8    4    6 1
     9    4   11 1
    10    5   12 1
    11    5   15 1
    12    5   16 1
    13    6    7 1
    14    6    8 2
    15    9   12 2
    16   10   12 2
