@<TRIPOS>MOLECULE
*****
   70    71     0     0     0
SMALL
NO_CHARGES

@<TRIPOS>ATOM
      1 C1          2.3951   -6.0746   -4.7768 C.2       1 <0>         0.0000
      2 C2          3.7738   -3.8337   -2.8362 C.2       1 <0>         0.0000
      3 C3         -0.6449   -5.2397   -5.4369 C.2       1 <0>         0.0000
      4 C4         -1.2510  -11.7472   -4.8060 C.3       1 <0>         0.0000
      5 C5          7.3489   -9.5033   -2.6794 C.3       1 <0>         0.0000
      6 C6         -1.5201  -10.4976   -3.9734 C.3       1 <0>         0.0000
      7 C7         -0.7653  -11.3932   -6.2081 C.3       1 <0>         0.0000
      8 C8          6.5388   -9.4072   -1.3903 C.3       1 <0>         0.0000
      9 C9          6.5858   -8.9233   -3.8662 C.3       1 <0>         0.0000
     10 C10        -0.3022   -9.5774   -3.9285 C.3       1 <0>         0.0000
     11 C11         0.4539  -10.4748   -6.1668 C.3       1 <0>         0.0000
     12 C12         6.0825   -7.9758   -1.1171 C.3       1 <0>         0.0000
     13 C13         6.1297   -7.4911   -3.5971 C.3       1 <0>         0.0000
     14 C14         0.1841   -9.2121   -5.3374 C.3       1 <0>         0.0000
     15 C15         5.3067   -7.3918   -2.3055 C.3       1 <0>         0.0000
     16 C16        -1.5517   -2.5563   -5.7935 C.3       1 <0>         0.0000
     17 C17        -2.9474   -3.4738   -7.6695 C.3       1 <0>         0.0000
     18 C18        -3.3337   -4.2691   -5.3187 C.3       1 <0>         0.0000
     19 C19         1.4335   -8.3361   -5.2665 C.3       1 <0>         0.0000
     20 C20         4.9080   -5.9432   -2.0300 C.3       1 <0>         0.0000
     21 C21         1.1155   -6.9002   -4.8502 C.3       1 <0>         0.0000
     22 C22         4.1036   -5.2815   -3.1539 C.3       1 <0>         0.0000
     23 C23        -2.2920   -3.7827   -6.3252 C.3       1 <0>         0.0000
     24 N1          2.9216   -6.0393   -3.4932 N.am      1 <0>         0.0000
     25 N2          0.2322   -6.2491   -5.7832 N.am      1 <0>         0.0000
     26 O1          2.8644   -5.4794   -5.7447 O.2       1 <0>         0.0000
     27 O2          4.6202   -2.9759   -2.6160 O.2       1 <0>         0.0000
     28 O3         -0.7866   -4.7719   -4.3118 O.2       1 <0>         0.0000
     29 O4          2.4443   -3.5757   -2.8288 O.3       1 <0>         0.0000
     30 O5         -1.3408   -4.8315   -6.5399 O.3       1 <0>         0.0000
     31 H1         -2.1643  -12.3491   -4.8732 H         1 <0>         0.0000
     32 H2         -0.4960  -12.3643   -4.3036 H         1 <0>         0.0000
     33 H3          7.6005  -10.5510   -2.8794 H         1 <0>         0.0000
     34 H4          8.2958   -8.9636   -2.5560 H         1 <0>         0.0000
     35 H5         -2.3731   -9.9531   -4.3968 H         1 <0>         0.0000
     36 H6         -1.8009  -10.7878   -2.9546 H         1 <0>         0.0000
     37 H7         -0.5176  -12.3107   -6.7541 H         1 <0>         0.0000
     38 H8         -1.5742  -10.9008   -6.7617 H         1 <0>         0.0000
     39 H9          5.6618  -10.0624   -1.4602 H         1 <0>         0.0000
     40 H10         7.1413   -9.7691   -0.5494 H         1 <0>         0.0000
     41 H11         7.2211   -8.9466   -4.7589 H         1 <0>         0.0000
     42 H12         5.7114   -9.5503   -4.0801 H         1 <0>         0.0000
     43 H13        -0.5569   -8.6672   -3.3725 H         1 <0>         0.0000
     44 H14         0.5035  -10.0737   -3.3723 H         1 <0>         0.0000
     45 H15         1.3047  -11.0246   -5.7440 H         1 <0>         0.0000
     46 H16         0.7330  -10.1977   -7.1905 H         1 <0>         0.0000
     47 H17         5.4557   -7.9614   -0.2174 H         1 <0>         0.0000
     48 H18         6.9604   -7.3530   -0.9019 H         1 <0>         0.0000
     49 H19         7.0105   -6.8395   -3.5296 H         1 <0>         0.0000
     50 H20         5.5362   -7.1345   -4.4475 H         1 <0>         0.0000
     51 H21        -0.6054   -8.6337   -5.8357 H         1 <0>         0.0000
     52 H22         4.3856   -7.9748   -2.4368 H         1 <0>         0.0000
     53 H23        -1.0799   -2.7739   -4.8287 H         1 <0>         0.0000
     54 H24        -0.7780   -2.2185   -6.4907 H         1 <0>         0.0000
     55 H25        -2.2457   -1.7263   -5.6180 H         1 <0>         0.0000
     56 H26        -3.4797   -4.3510   -8.0548 H         1 <0>         0.0000
     57 H27        -2.1929   -3.2158   -8.4215 H         1 <0>         0.0000
     58 H28        -3.6573   -2.6440   -7.5917 H         1 <0>         0.0000
     59 H29        -3.8648   -5.1488   -5.6999 H         1 <0>         0.0000
     60 H30        -2.8760   -4.5307   -4.3592 H         1 <0>         0.0000
     61 H31        -4.0949   -3.5003   -5.1434 H         1 <0>         0.0000
     62 H32         1.9147   -8.3466   -6.2503 H         1 <0>         0.0000
     63 H33         2.1427   -8.7886   -4.5642 H         1 <0>         0.0000
     64 H34         4.3238   -5.9178   -1.1018 H         1 <0>         0.0000
     65 H35         5.8196   -5.3613   -1.8458 H         1 <0>         0.0000
     66 H36         0.6184   -6.8766   -3.8736 H         1 <0>         0.0000
     67 H37         4.7111   -5.2677   -4.0665 H         1 <0>         0.0000
     68 H38         2.4469   -6.5357   -2.7448 H         1 <0>         0.0000
     69 H39         0.2558   -6.5503   -6.7547 H         1 <0>         0.0000
     70 H40         1.9139   -4.3772   -3.0248 H         1 <0>         0.0000
@<TRIPOS>BOND
     1    1   21 1
     2    1   24 am
     3    1   26 2
     4    2   22 1
     5    2   27 2
     6    2   29 1
     7    3   25 am
     8    3   28 2
     9    3   30 1
    10    4    7 1
    11    4    6 1
    12    4   31 1
    13    4   32 1
    14    5    9 1
    15    5    8 1
    16    5   33 1
    17    5   34 1
    18    6   10 1
    19    6   35 1
    20    6   36 1
    21    7   11 1
    22    7   37 1
    23    7   38 1
    24    8   12 1
    25    8   39 1
    26    8   40 1
    27    9   13 1
    28    9   41 1
    29    9   42 1
    30   10   14 1
    31   10   43 1
    32   10   44 1
    33   11   14 1
    34   11   45 1
    35   11   46 1
    36   12   15 1
    37   12   47 1
    38   12   48 1
    39   13   15 1
    40   13   49 1
    41   13   50 1
    42   14   19 1
    43   14   51 1
    44   15   20 1
    45   15   52 1
    46   16   23 1
    47   16   53 1
    48   16   54 1
    49   16   55 1
    50   17   23 1
    51   17   56 1
    52   17   57 1
    53   17   58 1
    54   18   23 1
    55   18   59 1
    56   18   60 1
    57   18   61 1
    58   19   21 1
    59   19   62 1
    60   19   63 1
    61   20   22 1
    62   20   64 1
    63   20   65 1
    64   21   25 1
    65   21   66 1
    66   22   24 1
    67   22   67 1
    68   23   30 1
    69   24   68 1
    70   25   69 1
    71   29   70 1
