@<TRIPOS>MOLECULE
*****
   11    10     0     0     0
SMALL
NO_CHARGES

@<TRIPOS>ATOM
      1 C1         -0.5294    0.5106    0.3915 C.3       1 <0>         0.0000
      2 N1         -0.9047   -0.8288    0.7998 N.3       1 <0>         0.0000
      3 O1         -0.2275   -0.2446   -2.1870 O.2       1 <0>         0.0000
      4 O2          1.2437    1.6352   -1.2192 O.3       1 <0>         0.0000
      5 P1          0.5785    0.1677   -0.9807 P.3       1 <0>         0.0000
      6 H1         -1.4043    1.0759    0.0607 H         1 <0>         0.0000
      7 H2         -0.0211    1.0514    1.1937 H         1 <0>         0.0000
      8 H3         -1.3708   -1.3065    0.0291 H         1 <0>         0.0000
      9 H4         -1.5917   -0.7728    1.5505 H         1 <0>         0.0000
     10 H5          1.8607    1.7569   -1.9722 H         1 <0>         0.0000
     11 H6          1.6935   -0.6028   -0.5883 H         1 <0>         0.0000
@<TRIPOS>BOND
     1    1    2 1
     2    1    5 1
     3    1    6 1
     4    1    7 1
     5    2    8 1
     6    2    9 1
     7    3    5 2
     8    4    5 1
     9    4   10 1
    10    5   11 1
