@<TRIPOS>MOLECULE
*****
   40    42     0     0     0
SMALL
NO_CHARGES

@<TRIPOS>ATOM
      1 C1         -0.5669   -0.5480    4.4474 C.2       1 <0>         0.0000
      2 C2          0.8010   -0.5478    4.6027 C.2       1 <0>         0.0000
      3 C3          0.4590   -1.1572    2.6041 C.2       1 <0>         0.0000
      4 C4         -1.5765   -0.1553    5.4633 C.3       1 <0>         0.0000
      5 C5         -0.0115   -0.7419    0.2064 C.3       1 <0>         0.0000
      6 C6          1.6891   -2.4185    0.8889 C.3       1 <0>         0.0000
      7 C7         -0.2682   -1.5747   -1.0519 C.3       1 <0>         0.0000
      8 C8          1.3762   -3.1979   -0.3904 C.3       1 <0>         0.0000
      9 C9          0.4048    0.2449    6.8320 C.3       1 <0>         0.0000
     10 C10        -2.0628   -1.1196    2.5213 C.3       1 <0>         0.0000
     11 C11         2.7694    0.0516    5.9477 C.3       1 <0>         0.0000
     12 C12         0.6996   -3.0436   -2.6969 C.3       1 <0>         0.0000
     13 N1          1.4391   -0.9236    3.4551 N.2       1 <0>         0.0000
     14 N2         -0.7785   -0.9430    3.1601 N.pl3     1 <0>         0.0000
     15 N3         -1.0040   -0.2515    6.8282 N.3       1 <0>         0.0000
     16 N4          1.3543   -0.1971    5.7906 N.pl3     1 <0>         0.0000
     17 N5          0.5473   -1.5788    1.2727 N.pl3     1 <0>         0.0000
     18 N6          0.9424   -2.2953   -1.4640 N.3       1 <0>         0.0000
     19 H1         -1.9303    0.8699    5.3002 H         1 <0>         0.0000
     20 H2         -2.4480   -0.8188    5.3938 H         1 <0>         0.0000
     21 H3          0.6856    0.0764   -0.0195 H         1 <0>         0.0000
     22 H4         -0.9574   -0.2881    0.5301 H         1 <0>         0.0000
     23 H5          1.9267   -3.1304    1.6893 H         1 <0>         0.0000
     24 H6          2.5727   -1.7845    0.7385 H         1 <0>         0.0000
     25 H7         -1.1005   -2.2691   -0.8724 H         1 <0>         0.0000
     26 H8         -0.5834   -0.8926   -1.8516 H         1 <0>         0.0000
     27 H9          2.2863   -3.7274   -0.6968 H         1 <0>         0.0000
     28 H10         0.6132   -3.9598   -0.1819 H         1 <0>         0.0000
     29 H11         0.3475    1.3410    6.8091 H         1 <0>         0.0000
     30 H12         0.8360   -0.0078    7.8113 H         1 <0>         0.0000
     31 H13        -2.3463   -0.1676    2.0648 H         1 <0>         0.0000
     32 H14        -1.9864   -1.9009    1.7600 H         1 <0>         0.0000
     33 H15        -2.8006   -1.4204    3.2704 H         1 <0>         0.0000
     34 H16         2.9912    0.3183    6.9843 H         1 <0>         0.0000
     35 H17         3.0831    0.8733    5.2981 H         1 <0>         0.0000
     36 H18         3.3417   -0.8418    5.6840 H         1 <0>         0.0000
     37 H19         0.3772   -2.3650   -3.4909 H         1 <0>         0.0000
     38 H20        -0.0800   -3.7933   -2.5366 H         1 <0>         0.0000
     39 H21         1.6134   -3.5512   -3.0172 H         1 <0>         0.0000
     40 H22        -1.5431    0.3568    7.4393 H         1 <0>         0.0000
@<TRIPOS>BOND
     1    1    2 2
     2    1    4 1
     3    1   14 1
     4    2   13 1
     5    2   16 1
     6    3   13 2
     7    3   14 1
     8    3   17 1
     9    4   15 1
    10    4   19 1
    11    4   20 1
    12    5    7 1
    13    5   17 1
    14    5   21 1
    15    5   22 1
    16    6    8 1
    17    6   17 1
    18    6   23 1
    19    6   24 1
    20    7   18 1
    21    7   25 1
    22    7   26 1
    23    8   18 1
    24    8   27 1
    25    8   28 1
    26    9   15 1
    27    9   16 1
    28    9   29 1
    29    9   30 1
    30   10   14 1
    31   10   31 1
    32   10   32 1
    33   10   33 1
    34   11   16 1
    35   11   34 1
    36   11   35 1
    37   11   36 1
    38   12   18 1
    39   12   37 1
    40   12   38 1
    41   12   39 1
    42   15   40 1
