@<TRIPOS>MOLECULE
*****
   27    28     0     0     0
SMALL
NO_CHARGES

@<TRIPOS>ATOM
      1 C1         -2.1386   -0.5324    1.8711 C.2       1 <0>         0.0000
      2 C2         -3.6831   -3.5670    1.6909 C.3       1 <0>         0.0000
      3 C3         -5.0136   -2.9916    1.3023 C.3       1 <0>         0.0000
      4 C4          0.2543    1.8031    0.1751 C.3       1 <0>         0.0000
      5 C5          1.0599   -0.1897   -0.7663 C.3       1 <0>         0.0000
      6 C6         -4.0253   -2.1504    2.0620 C.3       1 <0>         0.0000
      7 C7          0.6916    1.2168   -1.1438 C.3       1 <0>         0.0000
      8 C8         -1.6897    0.6339    1.0283 C.3       1 <0>         0.0000
      9 N1         -0.2302    0.6771    0.9890 N.3       1 <0>         0.0000
     10 N2         -3.3593   -1.0299    1.4378 N.am      1 <0>         0.0000
     11 O1         -1.4894   -0.9728    2.8161 O.2       1 <0>         0.0000
     12 O2          0.1385   -0.5459    0.2651 O.3       1 <0>         0.0000
     13 O3         -0.4072    1.2158   -2.0473 O.3       1 <0>         0.0000
     14 H1         -3.6643   -4.3054    2.4831 H         1 <0>         0.0000
     15 H2         -2.9586   -3.7345    0.9034 H         1 <0>         0.0000
     16 H3         -5.1805   -2.7728    0.2547 H         1 <0>         0.0000
     17 H4         -5.8900   -3.3427    1.8332 H         1 <0>         0.0000
     18 H5          1.1235    2.2234    0.6943 H         1 <0>         0.0000
     19 H6         -0.4834    2.6063    0.0661 H         1 <0>         0.0000
     20 H7          0.9568   -0.8995   -1.5918 H         1 <0>         0.0000
     21 H8          2.0728   -0.2517   -0.3542 H         1 <0>         0.0000
     22 H9         -4.2497   -1.9615    3.1063 H         1 <0>         0.0000
     23 H10         1.5166    1.7652   -1.6071 H         1 <0>         0.0000
     24 H11        -2.0743    0.5224    0.0102 H         1 <0>         0.0000
     25 H12        -2.0653    1.5676    1.4571 H         1 <0>         0.0000
     26 H13        -3.8071   -0.5843    0.6423 H         1 <0>         0.0000
     27 H14        -0.0844    0.8327   -2.8785 H         1 <0>         0.0000
@<TRIPOS>BOND
     1    1    8 1
     2    1   10 am
     3    1   11 2
     4    2    3 1
     5    2    6 1
     6    2   14 1
     7    2   15 1
     8    3    6 1
     9    3   16 1
    10    3   17 1
    11    4    7 1
    12    4    9 1
    13    4   18 1
    14    4   19 1
    15    5    7 1
    16    5   12 1
    17    5   20 1
    18    5   21 1
    19    6   10 1
    20    6   22 1
    21    7   13 1
    22    7   23 1
    23    8    9 1
    24    8   24 1
    25    8   25 1
    26    9   12 1
    27   10   26 1
    28   13   27 1
