@<TRIPOS>MOLECULE
*****
   30    31     0     0     0
SMALL
NO_CHARGES

@<TRIPOS>ATOM
      1 C1          4.8971    0.9002   -1.4509 C.2       1 <0>         0.0000
      2 C2          2.6052   -4.9048    2.7163 C.2       1 <0>         0.0000
      3 C3          3.5442    0.9020   -1.8716 C.2       1 <0>         0.0000
      4 C4          1.4342   -4.1918    2.3589 C.2       1 <0>         0.0000
      5 C5          4.8996    0.9146   -0.0736 C.2       1 <0>         0.0000
      6 C6          3.6822   -4.1970    2.2301 C.2       1 <0>         0.0000
      7 C7          2.7612    0.9178   -0.7385 C.2       1 <0>         0.0000
      8 C8          1.8314   -3.0701    1.6650 C.2       1 <0>         0.0000
      9 C9          1.2759    0.9270   -0.6412 C.2       1 <0>         0.0000
     10 C10         0.9823   -2.0000    1.0738 C.2       1 <0>         0.0000
     11 C11         0.5242    2.0831   -1.2733 C.3       1 <0>         0.0000
     12 C12        -0.5226   -2.1128    1.2279 C.3       1 <0>         0.0000
     13 N1          0.6905   -0.0594   -0.0297 N.2       1 <0>         0.0000
     14 N2          1.5678   -1.0137    0.4622 N.2       1 <0>         0.0000
     15 N3          3.5957    0.9256    0.3485 N.pl3     1 <0>         0.0000
     16 N4          3.1998   -3.0838    1.5926 N.pl3     1 <0>         0.0000
     17 H1          5.7738    0.8908   -2.0830 H         1 <0>         0.0000
     18 H2          2.6575   -5.8335    3.2667 H         1 <0>         0.0000
     19 H3          3.1844    0.8927   -2.8914 H         1 <0>         0.0000
     20 H4          0.4139   -4.4697    2.5852 H         1 <0>         0.0000
     21 H5          5.7096    0.9213    0.6421 H         1 <0>         0.0000
     22 H6          4.7453   -4.3865    2.2776 H         1 <0>         0.0000
     23 H7          0.2615    1.8792   -2.3142 H         1 <0>         0.0000
     24 H8          1.1475    2.9824   -1.2721 H         1 <0>         0.0000
     25 H9         -0.3886    2.2756   -0.7022 H         1 <0>         0.0000
     26 H10        -0.8447   -1.6137    2.1469 H         1 <0>         0.0000
     27 H11        -1.0549   -1.6338    0.4023 H         1 <0>         0.0000
     28 H12        -0.8028   -3.1691    1.2731 H         1 <0>         0.0000
     29 H13         3.2981    0.9378    1.3145 H         1 <0>         0.0000
     30 H14         3.7687   -2.3820    1.1391 H         1 <0>         0.0000
@<TRIPOS>BOND
     1    1    3 1
     2    1    5 2
     3    1   17 1
     4    2    4 1
     5    2    6 2
     6    2   18 1
     7    3    7 2
     8    3   19 1
     9    4    8 2
    10    4   20 1
    11    5   15 1
    12    5   21 1
    13    6   16 1
    14    6   22 1
    15    7    9 1
    16    7   15 1
    17    8   10 1
    18    8   16 1
    19    9   11 1
    20    9   13 2
    21   10   12 1
    22   10   14 2
    23   11   23 1
    24   11   24 1
    25   11   25 1
    26   12   26 1
    27   12   27 1
    28   12   28 1
    29   13   14 1
    30   15   29 1
    31   16   30 1
