@<TRIPOS>MOLECULE
*****
   40    42     0     0     0
SMALL
NO_CHARGES

@<TRIPOS>ATOM
      1 C1          0.4590   -3.2066    0.9046 C.ar      1 <0>         0.0000
      2 C2          2.9044   -4.6979    3.1180 C.2       1 <0>         0.0000
      3 C3          0.4480   -1.8765    1.3104 C.ar      1 <0>         0.0000
      4 C4          2.5110   -5.7343    2.3340 C.2       1 <0>         0.0000
      5 C5          2.1405   -3.5404    2.6828 C.ar      1 <0>         0.0000
      6 C6          1.3352   -4.0128    1.6317 C.ar      1 <0>         0.0000
      7 C7          2.0292   -2.1509    3.0077 C.ar      1 <0>         0.0000
      8 C8          0.4202    4.3284    2.8678 C.3       1 <0>         0.0000
      9 C9         -0.2008    3.0727    2.1914 C.3       1 <0>         0.0000
     10 C10         0.8266    3.8405    4.2708 C.3       1 <0>         0.0000
     11 C11        -0.1253    1.9762    3.2684 C.3       1 <0>         0.0000
     12 C12         3.4818   -2.3256    4.9955 C.3       1 <0>         0.0000
     13 C13         1.3743    0.1790    5.1702 C.3       1 <0>         0.0000
     14 C14         1.1347    1.6792    5.3660 C.3       1 <0>         0.0000
     15 C15         2.5742   -0.1152    4.2611 C.3       1 <0>         0.0000
     16 N1          1.1847   -1.3649    2.3128 N.ar      1 <0>         0.0000
     17 N2          1.0043    2.3973    4.1055 N.3       1 <0>         0.0000
     18 N3          2.7600   -1.5458    4.0031 N.pl3     1 <0>         0.0000
     19 O1          1.5526   -5.3453    1.4190 O.3       1 <0>         0.0000
     20 H1         -0.1547   -3.5794    0.0928 H         1 <0>         0.0000
     21 H2          3.6464   -4.7673    3.8980 H         1 <0>         0.0000
     22 H3         -0.2010   -1.1641    0.8029 H         1 <0>         0.0000
     23 H4          2.7972   -6.7754    2.2920 H         1 <0>         0.0000
     24 H5          1.2967    4.6709    2.3112 H         1 <0>         0.0000
     25 H6         -0.2811    5.1658    2.9240 H         1 <0>         0.0000
     26 H7         -1.2297    3.2387    1.8599 H         1 <0>         0.0000
     27 H8          0.3844    2.7805    1.3154 H         1 <0>         0.0000
     28 H9          1.7476    4.3033    4.6418 H         1 <0>         0.0000
     29 H10         0.0226    4.0633    5.0008 H         1 <0>         0.0000
     30 H11        -1.0647    1.9473    3.8570 H         1 <0>         0.0000
     31 H12         0.0479    0.9800    2.8542 H         1 <0>         0.0000
     32 H13         3.7734   -1.6647    5.8132 H         1 <0>         0.0000
     33 H14         4.3979   -2.7675    4.5842 H         1 <0>         0.0000
     34 H15         2.8641   -3.1262    5.4191 H         1 <0>         0.0000
     35 H16         0.4886   -0.2915    4.7341 H         1 <0>         0.0000
     36 H17         1.5252   -0.2814    6.1552 H         1 <0>         0.0000
     37 H18         0.2373    1.8192    6.0028 H         1 <0>         0.0000
     38 H19         1.9797    2.1178    5.9132 H         1 <0>         0.0000
     39 H20         3.4970    0.2648    4.7138 H         1 <0>         0.0000
     40 H21         2.4444    0.3980    3.3108 H         1 <0>         0.0000
@<TRIPOS>BOND
     1    1    3 ar
     2    1    6 ar
     3    1   20 1
     4    2    4 2
     5    2    5 1
     6    2   21 1
     7    3   16 ar
     8    3   22 1
     9    4   19 1
    10    4   23 1
    11    5    6 ar
    12    5    7 ar
    13    6   19 1
    14    7   16 ar
    15    7   18 1
    16    8    9 1
    17    8   10 1
    18    8   24 1
    19    8   25 1
    20    9   11 1
    21    9   26 1
    22    9   27 1
    23   10   17 1
    24   10   28 1
    25   10   29 1
    26   11   17 1
    27   11   30 1
    28   11   31 1
    29   12   18 1
    30   12   32 1
    31   12   33 1
    32   12   34 1
    33   13   14 1
    34   13   15 1
    35   13   35 1
    36   13   36 1
    37   14   17 1
    38   14   37 1
    39   14   38 1
    40   15   18 1
    41   15   39 1
    42   15   40 1
