@<TRIPOS>MOLECULE
*****
   23    23     0     0     0
SMALL
NO_CHARGES

@<TRIPOS>ATOM
      1 C1          1.8851   -1.0363   -0.1124 C.ar      1 <0>         0.0000
      2 C2          0.8066   -0.4630    0.5610 C.ar      1 <0>         0.0000
      3 C3          1.7997   -1.0786    2.6757 C.ar      1 <0>         0.0000
      4 C4          2.8783   -1.6520    2.0022 C.ar      1 <0>         0.0000
      5 C5          2.9210   -1.6309    0.6081 C.ar      1 <0>         0.0000
      6 C6          0.7638   -0.4841    1.9551 C.ar      1 <0>         0.0000
      7 C7          5.6342   -1.8986    4.3112 C.3       1 <0>         0.0000
      8 C8          0.2600    1.4949    3.7834 C.3       1 <0>         0.0000
      9 C9          4.1658   -1.7004    4.0011 C.3       1 <0>         0.0000
     10 O1          3.8884   -2.2317    2.7062 O.3       1 <0>         0.0000
     11 F1          3.9541   -2.1798   -0.0453 F         1 <0>         0.0000
     12 S1         -0.6155    0.2466    2.8152 S.3       1 <0>         0.0000
     13 H1          1.9188   -1.0200   -1.1978 H         1 <0>         0.0000
     14 H2          0.0086   -0.0043   -0.0177 H         1 <0>         0.0000
     15 H3          1.7780   -1.1016    3.7633 H         1 <0>         0.0000
     16 H4          5.8941   -2.9609    4.3069 H         1 <0>         0.0000
     17 H5          6.2576   -1.3792    3.5760 H         1 <0>         0.0000
     18 H6          5.8816   -1.4785    5.2917 H         1 <0>         0.0000
     19 H7         -0.4507    2.0589    4.3924 H         1 <0>         0.0000
     20 H8          0.7821    2.1840    3.1150 H         1 <0>         0.0000
     21 H9          0.9886    1.0122    4.4392 H         1 <0>         0.0000
     22 H10         3.9126   -0.6361    4.0070 H         1 <0>         0.0000
     23 H11         3.5445   -2.2207    4.7361 H         1 <0>         0.0000
@<TRIPOS>BOND
     1    1    2 ar
     2    1    5 ar
     3    1   13 1
     4    2    6 ar
     5    2   14 1
     6    3    4 ar
     7    3    6 ar
     8    3   15 1
     9    4    5 ar
    10    4   10 1
    11    5   11 1
    12    6   12 1
    13    7    9 1
    14    7   16 1
    15    7   17 1
    16    7   18 1
    17    8   12 1
    18    8   19 1
    19    8   20 1
    20    8   21 1
    21    9   10 1
    22    9   22 1
    23    9   23 1
