@<TRIPOS>MOLECULE
*****
   56    57     0     0     0
SMALL
NO_CHARGES

@<TRIPOS>ATOM
      1 C1         -2.8687   -1.0735   -1.3754 C.2       1 <0>         0.0000
      2 C2         -1.9259    0.0020   -1.1680 C.2       1 <0>         0.0000
      3 C3         -0.7878   -0.4322   -0.5430 C.2       1 <0>         0.0000
      4 C4         -4.1734   -1.0031   -2.0105 C.2       1 <0>         0.0000
      5 C5         -2.4238   -2.2848   -0.8864 C.2       1 <0>         0.0000
      6 C6         -4.3824   -3.4667   -1.6283 C.2       1 <0>         0.0000
      7 C7         -2.1648    1.4232   -1.5951 C.3       1 <0>         0.0000
      8 C8         -7.2095   -2.6368   -5.1546 C.3       1 <0>         0.0000
      9 C9         -5.0432   -3.8398   -4.7481 C.3       1 <0>         0.0000
     10 C10        -5.5892   -0.2517   -5.2953 C.3       1 <0>         0.0000
     11 C11         0.4212    0.3561   -0.1237 C.3       1 <0>         0.0000
     12 C12        -1.8930   -5.5186   -1.4669 C.3       1 <0>         0.0000
     13 C13        -2.6616   -4.7142   -0.4135 C.3       1 <0>         0.0000
     14 C14        -6.0489   -2.2960   -2.9736 C.3       1 <0>         0.0000
     15 C15         0.9144    2.9352    2.6068 C.3       1 <0>         0.0000
     16 C16         1.2936    1.9601    1.4942 C.3       1 <0>         0.0000
     17 C17        -1.3547   -6.8205   -0.9053 C.3       1 <0>         0.0000
     18 C18        -5.8276   -2.5511   -4.4879 C.3       1 <0>         0.0000
     19 N1         -4.8057   -2.2625   -2.1893 N.am      1 <0>         0.0000
     20 N2         -3.1623   -3.4445   -0.9520 N.am      1 <0>         0.0000
     21 N3          2.1170    3.6121    3.1150 N.3       1 <0>         0.0000
     22 N4          0.1071    1.2827    0.9700 N.3       1 <0>         0.0000
     23 O1         -4.7239    0.0335   -2.3720 O.2       1 <0>         0.0000
     24 O2         -5.0326   -4.5069   -1.7133 O.2       1 <0>         0.0000
     25 O3         -5.0002   -1.5280   -5.0661 O.3       1 <0>         0.0000
     26 F1         -0.4478   -6.5538    0.1407 F         1 <0>         0.0000
     27 S1         -0.8467   -2.1595   -0.1736 S.3       1 <0>         0.0000
     28 H1         -3.0724    1.8147   -1.1281 H         1 <0>         0.0000
     29 H2         -1.3260    2.0599   -1.3103 H         1 <0>         0.0000
     30 H3         -2.3233    1.4791   -2.6762 H         1 <0>         0.0000
     31 H4         -7.8338   -1.7662   -4.9313 H         1 <0>         0.0000
     32 H5         -7.0975   -2.7124   -6.2404 H         1 <0>         0.0000
     33 H6         -7.7400   -3.5273   -4.8042 H         1 <0>         0.0000
     34 H7         -4.0232   -3.7455   -4.3657 H         1 <0>         0.0000
     35 H8         -4.9795   -4.0085   -5.8269 H         1 <0>         0.0000
     36 H9         -5.5162   -4.6991   -4.2695 H         1 <0>         0.0000
     37 H10        -4.7702    0.4040   -5.5992 H         1 <0>         0.0000
     38 H11        -6.0395    0.1681   -4.3905 H         1 <0>         0.0000
     39 H12        -6.3312   -0.2882   -6.1038 H         1 <0>         0.0000
     40 H13         1.2423   -0.3379    0.1331 H         1 <0>         0.0000
     41 H14         0.7830    0.9494   -0.9723 H         1 <0>         0.0000
     42 H15        -1.0638   -4.9237   -1.8645 H         1 <0>         0.0000
     43 H16        -2.5665   -5.7532   -2.2986 H         1 <0>         0.0000
     44 H17        -2.0257   -4.4912    0.4460 H         1 <0>         0.0000
     45 H18        -3.5243   -5.2802   -0.0604 H         1 <0>         0.0000
     46 H19        -6.5421   -1.3357   -2.8261 H         1 <0>         0.0000
     47 H20        -6.6784   -3.0850   -2.5630 H         1 <0>         0.0000
     48 H21         0.3478    2.3933    3.3857 H         1 <0>         0.0000
     49 H22         0.2400    3.6904    2.1915 H         1 <0>         0.0000
     50 H23         1.7638    2.5229    0.6805 H         1 <0>         0.0000
     51 H24         2.0563    1.2492    1.8684 H         1 <0>         0.0000
     52 H25        -0.8125   -7.3902   -1.6655 H         1 <0>         0.0000
     53 H26        -2.1521   -7.4434   -0.4859 H         1 <0>         0.0000
     54 H27         2.6979    2.9482    3.6251 H         1 <0>         0.0000
     55 H28         1.8511    4.3331    3.7830 H         1 <0>         0.0000
     56 H29        -0.3506    0.7611    1.7163 H         1 <0>         0.0000
@<TRIPOS>BOND
     1    1    2 1
     2    1    5 2
     3    1    4 1
     4    2    3 2
     5    2    7 1
     6    3   11 1
     7    3   27 1
     8    4   19 am
     9    4   23 2
    10    5   20 1
    11    5   27 1
    12    6   20 am
    13    6   19 am
    14    6   24 2
    15    7   28 1
    16    7   29 1
    17    7   30 1
    18    8   18 1
    19    8   31 1
    20    8   32 1
    21    8   33 1
    22    9   18 1
    23    9   34 1
    24    9   35 1
    25    9   36 1
    26   10   25 1
    27   10   37 1
    28   10   38 1
    29   10   39 1
    30   11   22 1
    31   11   40 1
    32   11   41 1
    33   12   13 1
    34   12   17 1
    35   12   42 1
    36   12   43 1
    37   13   20 1
    38   13   44 1
    39   13   45 1
    40   14   18 1
    41   14   19 1
    42   14   46 1
    43   14   47 1
    44   15   16 1
    45   15   21 1
    46   15   48 1
    47   15   49 1
    48   16   22 1
    49   16   50 1
    50   16   51 1
    51   17   26 1
    52   17   52 1
    53   17   53 1
    54   18   25 1
    55   21   54 1
    56   21   55 1
    57   22   56 1
