@<TRIPOS>MOLECULE
*****
   40    41     0     0     0
SMALL
NO_CHARGES

@<TRIPOS>ATOM
      1 C1         -1.0458   -7.4349   -1.9025 C.ar      1 <0>         0.0000
      2 C2         -0.5961   -7.4102   -0.5801 C.ar      1 <0>         0.0000
      3 C3         -0.1163   -7.4670   -2.9492 C.ar      1 <0>         0.0000
      4 C4          0.7764   -7.4113   -0.3100 C.ar      1 <0>         0.0000
      5 C5          1.2514   -7.4682   -2.6754 C.ar      1 <0>         0.0000
      6 C6          1.7089   -7.4363   -1.3515 C.ar      1 <0>         0.0000
      7 C7          4.0440   -8.4400   -1.7485 C.2       1 <0>         0.0000
      8 C8          3.7722   -5.9474   -1.1867 C.2       1 <0>         0.0000
      9 C9          0.1842   -0.5863   -1.0570 C.3       1 <0>         0.0000
     10 C10         1.2538   -0.4055   -2.1432 C.3       1 <0>         0.0000
     11 C11        -0.2211   -2.0600   -0.9151 C.3       1 <0>         0.0000
     12 C12         2.4723   -1.3043   -1.8880 C.3       1 <0>         0.0000
     13 C13         0.9963   -2.9596   -0.6619 C.3       1 <0>         0.0000
     14 C14         2.0641   -2.7816   -1.7545 C.3       1 <0>         0.0000
     15 C15         3.2951   -3.6358   -1.4963 C.3       1 <0>         0.0000
     16 C16         3.1852   -7.3548   -1.0359 C.3       1 <0>         0.0000
     17 O1          3.5479   -9.4164   -2.2586 O.2       1 <0>         0.0000
     18 O2          4.9702   -5.7067   -1.0574 O.2       1 <0>         0.0000
     19 O3          5.3762   -8.2650   -1.6929 O.3       1 <0>         0.0000
     20 O4          2.8537   -5.0234   -1.4247 O.3       1 <0>         0.0000
     21 H1         -2.1112   -7.4365   -2.1177 H         1 <0>         0.0000
     22 H2         -1.3090   -7.3926    0.2401 H         1 <0>         0.0000
     23 H3         -0.4596   -7.4966   -3.9801 H         1 <0>         0.0000
     24 H4          1.1201   -7.3877    0.7223 H         1 <0>         0.0000
     25 H5          1.9645   -7.5062   -3.4938 H         1 <0>         0.0000
     26 H6         -0.6935    0.0296   -1.2850 H         1 <0>         0.0000
     27 H7          0.5802   -0.2262   -0.0972 H         1 <0>         0.0000
     28 H8          0.8218   -0.6546   -3.1221 H         1 <0>         0.0000
     29 H9          1.5696    0.6427   -2.1975 H         1 <0>         0.0000
     30 H10        -0.9471   -2.1790   -0.1026 H         1 <0>         0.0000
     31 H11        -0.7250   -2.3884   -1.8344 H         1 <0>         0.0000
     32 H12         3.2053   -1.1847   -2.6956 H         1 <0>         0.0000
     33 H13         2.9693   -0.9832   -0.9614 H         1 <0>         0.0000
     34 H14         1.4404   -2.7050    0.3120 H         1 <0>         0.0000
     35 H15         0.6898   -4.0088   -0.6085 H         1 <0>         0.0000
     36 H16         1.6315   -3.1064   -2.7113 H         1 <0>         0.0000
     37 H17         3.7815   -3.3825   -0.5492 H         1 <0>         0.0000
     38 H18         4.0347   -3.5505   -2.2972 H         1 <0>         0.0000
     39 H19         3.3287   -7.5755    0.0312 H         1 <0>         0.0000
     40 H20         5.5754   -7.3656   -1.3349 H         1 <0>         0.0000
@<TRIPOS>BOND
     1    1    3 ar
     2    1    2 ar
     3    1   21 1
     4    2    4 ar
     5    2   22 1
     6    3    5 ar
     7    3   23 1
     8    4    6 ar
     9    4   24 1
    10    5    6 ar
    11    5   25 1
    12    6   16 1
    13    7   16 1
    14    7   17 2
    15    7   19 1
    16    8   16 1
    17    8   18 2
    18    8   20 1
    19    9   11 1
    20    9   10 1
    21    9   26 1
    22    9   27 1
    23   10   12 1
    24   10   28 1
    25   10   29 1
    26   11   13 1
    27   11   30 1
    28   11   31 1
    29   12   14 1
    30   12   32 1
    31   12   33 1
    32   13   14 1
    33   13   34 1
    34   13   35 1
    35   14   15 1
    36   14   36 1
    37   15   20 1
    38   15   37 1
    39   15   38 1
    40   16   39 1
    41   19   40 1
