@<TRIPOS>MOLECULE
*****
   35    37     0     0     0
SMALL
NO_CHARGES

@<TRIPOS>ATOM
      1 C1         -1.2555    3.1772   -4.0460 C.ar      1 <0>         0.0000
      2 C2         -1.6206    2.2926   -5.0664 C.ar      1 <0>         0.0000
      3 C3         -1.3293    2.7758   -2.7073 C.ar      1 <0>         0.0000
      4 C4         -2.1563    0.6213   -3.4156 C.ar      1 <0>         0.0000
      5 C5         -2.0784    1.0039   -4.7605 C.ar      1 <0>         0.0000
      6 C6         -1.7739    1.4838   -2.3787 C.ar      1 <0>         0.0000
      7 C7          1.2740   -1.1820   -1.1947 C.2       1 <0>         0.0000
      8 C8         -0.5715    0.2541    1.0630 C.2       1 <0>         0.0000
      9 C9          1.9287   -2.2385   -1.6845 C.2       1 <0>         0.0000
     10 C10        -2.4918    0.0155   -5.8828 C.2       1 <0>         0.0000
     11 C11         1.9241    0.0842   -0.6626 C.3       1 <0>         0.0000
     12 C12        -0.2371   -1.0375   -1.1133 C.3       1 <0>         0.0000
     13 C13         0.8137    2.0453    0.5808 C.3       1 <0>         0.0000
     14 C14         0.8045    1.1479   -0.6533 C.3       1 <0>         0.0000
     15 C15        -0.4908    0.3319   -0.4628 C.3       1 <0>         0.0000
     16 C16        -1.8024    1.0339   -0.9364 C.3       1 <0>         0.0000
     17 O1         -2.8775   -1.1169   -5.4813 O.co2     1 <0>         0.0000
     18 O2         -1.1907   -0.5295    1.7462 O.2       1 <0>         0.0000
     19 O3         -2.3881    0.4642   -7.0566 O.co2     1 <0>         0.0000
     20 O4          0.1571    1.2744    1.6221 O.3       1 <0>         0.0000
     21 H1         -0.9159    4.1839   -4.2875 H         1 <0>         0.0000
     22 H2         -1.5729    2.5700   -6.1159 H         1 <0>         0.0000
     23 H3         -1.0543    3.4714   -1.9139 H         1 <0>         0.0000
     24 H4         -2.5400   -0.3765   -3.2151 H         1 <0>         0.0000
     25 H5          1.3986   -3.1133   -2.0548 H         1 <0>         0.0000
     26 H6          3.0152   -2.2568   -1.7466 H         1 <0>         0.0000
     27 H7          2.2751   -0.0917    0.3638 H         1 <0>         0.0000
     28 H8          2.7925    0.3920   -1.2526 H         1 <0>         0.0000
     29 H9         -0.6603   -1.0519   -2.1212 H         1 <0>         0.0000
     30 H10        -0.7116   -1.8407   -0.5414 H         1 <0>         0.0000
     31 H11         1.8138    2.2939    0.9458 H         1 <0>         0.0000
     32 H12         0.2459    2.9696    0.4295 H         1 <0>         0.0000
     33 H13         0.7926    1.7201   -1.5822 H         1 <0>         0.0000
     34 H14        -1.9955    1.8958   -0.2858 H         1 <0>         0.0000
     35 H15        -2.6211    0.3272   -0.7665 H         1 <0>         0.0000
@<TRIPOS>BOND
     1    1    2 ar
     2    1    3 ar
     3    1   21 1
     4    2    5 ar
     5    2   22 1
     6    3    6 ar
     7    3   23 1
     8    4    5 ar
     9    4    6 ar
    10    4   24 1
    11    5   10 1
    12    6   16 1
    13    7    9 2
    14    7   11 1
    15    7   12 1
    16    8   15 1
    17    8   18 2
    18    8   20 1
    19    9   25 1
    20    9   26 1
    21   10   17 1
    22   10   19 2
    23   11   14 1
    24   11   27 1
    25   11   28 1
    26   12   15 1
    27   12   29 1
    28   12   30 1
    29   13   14 1
    30   13   20 1
    31   13   31 1
    32   13   32 1
    33   14   15 1
    34   14   33 1
    35   15   16 1
    36   16   34 1
    37   16   35 1
