@<TRIPOS>MOLECULE
*****
   24    24     0     0     0
SMALL
NO_CHARGES

@<TRIPOS>ATOM
      1 C1         -0.1127    1.2192   -0.1071 C.2       1 <0>         0.0000
      2 C2          0.5697    0.4028    0.7134 C.2       1 <0>         0.0000
      3 C3          1.4529    0.9892    1.7205 C.2       1 <0>         0.0000
      4 C4         -1.0442    0.6534   -1.1609 C.3       1 <0>         0.0000
      5 C5         -0.4882   -1.5381   -0.3016 C.3       1 <0>         0.0000
      6 C6          3.7547    1.7926    2.2980 C.3       1 <0>         0.0000
      7 C7          3.2995    0.9183    0.0337 C.3       1 <0>         0.0000
      8 N1          0.4451   -0.9609    0.6519 N.pl3     1 <0>         0.0000
      9 N2         -0.8226   -0.7656   -1.5163 N.3       1 <0>         0.0000
     10 N3          2.7867    1.2244    1.3628 N.am      1 <0>         0.0000
     11 O1          0.9879    1.2388    2.8416 O.2       1 <0>         0.0000
     12 H1         -0.0350    2.2995   -0.0299 H         1 <0>         0.0000
     13 H2         -2.0761    0.7849   -0.8137 H         1 <0>         0.0000
     14 H3         -0.9338    1.2433   -2.0773 H         1 <0>         0.0000
     15 H4         -0.0939   -2.5084   -0.6225 H         1 <0>         0.0000
     16 H5         -1.4225   -1.7494    0.2339 H         1 <0>         0.0000
     17 H6          4.2544    0.9943    2.8527 H         1 <0>         0.0000
     18 H7          3.2507    2.4530    3.0089 H         1 <0>         0.0000
     19 H8          4.5087    2.3704    1.7568 H         1 <0>         0.0000
     20 H9          3.1810    1.7839   -0.6233 H         1 <0>         0.0000
     21 H10         2.7551    0.0731   -0.3961 H         1 <0>         0.0000
     22 H11         4.3606    0.6605    0.0882 H         1 <0>         0.0000
     23 H12         0.9254   -1.5407    1.3298 H         1 <0>         0.0000
     24 H13        -1.6544   -1.1510   -1.9612 H         1 <0>         0.0000
@<TRIPOS>BOND
     1    1    2 2
     2    1    4 1
     3    1   12 1
     4    2    3 1
     5    2    8 1
     6    3   10 am
     7    3   11 2
     8    4    9 1
     9    4   13 1
    10    4   14 1
    11    5    8 1
    12    5    9 1
    13    5   15 1
    14    5   16 1
    15    6   10 1
    16    6   17 1
    17    6   18 1
    18    6   19 1
    19    7   10 1
    20    7   20 1
    21    7   21 1
    22    7   22 1
    23    8   23 1
    24    9   24 1
