@<TRIPOS>MOLECULE
*****
   34    36     0     0     0
SMALL
NO_CHARGES

@<TRIPOS>ATOM
      1 C1         -2.6915   -2.6919    0.0379 C.ar      1 <0>         0.0000
      2 C2         -2.6991   -2.0330   -1.1864 C.ar      1 <0>         0.0000
      3 C3         -1.8132   -2.2277    1.0225 C.ar      1 <0>         0.0000
      4 C4         -1.8321   -0.9502   -1.4015 C.ar      1 <0>         0.0000
      5 C5         -0.9729   -0.5639   -0.3479 C.ar      1 <0>         0.0000
      6 C6         -0.8320    2.2557   -4.6954 C.3       1 <0>         0.0000
      7 C7         -1.6005    3.3631   -4.0056 C.3       1 <0>         0.0000
      8 C8          1.4424    0.3114   -0.2563 C.3       1 <0>         0.0000
      9 C9          0.9240    0.8317   -1.5781 C.3       1 <0>         0.0000
     10 C10        -2.0912    1.9421   -3.9338 C.3       1 <0>         0.0000
     11 C11        -0.0256    0.6136   -0.3890 C.3       1 <0>         0.0000
     12 C12        -0.5344    1.8291    0.3829 C.3       1 <0>         0.0000
     13 C13        -1.8567   -0.2865   -2.7562 C.3       1 <0>         0.0000
     14 N1         -0.9868   -1.1952    0.8365 N.ar      1 <0>         0.0000
     15 N2         -1.9736    1.2214   -2.6410 N.4       1 <0>         0.0000
     16 H1         -3.3465   -3.5356    0.2304 H         1 <0>         0.0000
     17 H2         -3.3706   -2.3602   -1.9771 H         1 <0>         0.0000
     18 H3         -1.7720   -2.7045    1.9998 H         1 <0>         0.0000
     19 H4         -0.8787    2.1753   -5.7760 H         1 <0>         0.0000
     20 H5          0.1188    1.9601   -4.2623 H         1 <0>         0.0000
     21 H6         -1.1602    3.7994   -3.1130 H         1 <0>         0.0000
     22 H7         -2.1829    4.0562   -4.6030 H         1 <0>         0.0000
     23 H8          1.7383   -0.7311   -0.2144 H         1 <0>         0.0000
     24 H9          2.0371    0.9780    0.3598 H         1 <0>         0.0000
     25 H10         1.1847    1.8529   -1.8507 H         1 <0>         0.0000
     26 H11         0.9290    0.1258   -2.4039 H         1 <0>         0.0000
     27 H12        -2.9891    1.6500   -4.4678 H         1 <0>         0.0000
     28 H13         0.1907    2.6477    0.3481 H         1 <0>         0.0000
     29 H14        -0.6925    1.5556    1.4294 H         1 <0>         0.0000
     30 H15        -1.4922    2.2108    0.0028 H         1 <0>         0.0000
     31 H16        -0.9566   -0.4642   -3.3464 H         1 <0>         0.0000
     32 H17        -2.7152   -0.6230   -3.3397 H         1 <0>         0.0000
     33 H18        -1.1309    1.5318   -2.1318 H         1 <0>         0.0000
     34 H19        -2.7727    1.4491   -2.0371 H         1 <0>         0.0000
@<TRIPOS>BOND
     1    1    2 ar
     2    1    3 ar
     3    1   16 1
     4    2    4 ar
     5    2   17 1
     6    3   14 ar
     7    3   18 1
     8    4    5 ar
     9    4   13 1
    10    5   11 1
    11    5   14 ar
    12    6    7 1
    13    6   10 1
    14    6   19 1
    15    6   20 1
    16    7   10 1
    17    7   21 1
    18    7   22 1
    19    8    9 1
    20    8   11 1
    21    8   23 1
    22    8   24 1
    23    9   11 1
    24    9   25 1
    25    9   26 1
    26   10   15 1
    27   10   27 1
    28   11   12 1
    29   12   28 1
    30   12   29 1
    31   12   30 1
    32   13   15 1
    33   13   31 1
    34   13   32 1
    35   15   33 1
    36   15   34 1
