@<TRIPOS>MOLECULE
*****
   56    60     0     0     0
SMALL
NO_CHARGES

@<TRIPOS>ATOM
      1 C1         -1.9302    2.1912    0.7952 C.ar      1 <0>         0.0000
      2 C2         -1.7873    1.0157    0.0300 C.ar      1 <0>         0.0000
      3 C3         -5.3058   -3.3838   -1.6506 C.ar      1 <0>         0.0000
      4 C4         -2.6826    2.2002    1.9719 C.ar      1 <0>         0.0000
      5 C5         -4.6938    1.0865    5.9506 C.ar      1 <0>         0.0000
      6 C6         -4.9200    2.8804    4.3655 C.ar      1 <0>         0.0000
      7 C7         -4.3817   -3.2437   -0.6044 C.ar      1 <0>         0.0000
      8 C8         -2.3821   -0.1804    0.4426 C.ar      1 <0>         0.0000
      9 C9         -6.6389   -3.0199   -1.4731 C.ar      1 <0>         0.0000
     10 C10        -5.1340    1.9325    6.9743 C.ar      1 <0>         0.0000
     11 C11        -5.3493    3.7344    5.3789 C.ar      1 <0>         0.0000
     12 C12        -6.1435   -2.3676    0.8164 C.ar      1 <0>         0.0000
     13 C13        -3.3115    1.0167    2.4026 C.ar      1 <0>         0.0000
     14 C14        -4.5759    1.5363    4.6234 C.ar      1 <0>         0.0000
     15 C15        -4.1180    0.6477    3.5465 C.2       1 <0>         0.0000
     16 C16        -4.8043   -2.7355    0.6262 C.ar      1 <0>         0.0000
     17 C17        -3.1256   -0.1668    1.6255 C.ar      1 <0>         0.0000
     18 C18        -5.4587    3.2654    6.6941 C.ar      1 <0>         0.0000
     19 C19        -7.0565   -2.5108   -0.2301 C.ar      1 <0>         0.0000
     20 C20        -4.3786   -0.7138    3.4330 C.2       1 <0>         0.0000
     21 C21        -5.2142   -1.6534    4.3098 C.2       1 <0>         0.0000
     22 C22        -7.3357    4.5834   11.0599 C.3       1 <0>         0.0000
     23 C23        -8.0041    5.1975    9.8456 C.3       1 <0>         0.0000
     24 C24        -6.5286    4.8786    9.8134 C.3       1 <0>         0.0000
     25 C25        -8.8098   -1.6473    1.1375 C.3       1 <0>         0.0000
     26 C26        -3.8445   -2.5686    1.7917 C.3       1 <0>         0.0000
     27 C27        -6.0354    3.7299    8.9750 C.3       1 <0>         0.0000
     28 N1         -3.7740   -1.1997    2.2802 N.pl3     1 <0>         0.0000
     29 O1         -4.6438   -2.0761    5.3459 O.co2     1 <0>         0.0000
     30 O2         -6.3682   -1.9049    3.8634 O.co2     1 <0>         0.0000
     31 O3         -8.3848   -2.1845   -0.1210 O.3       1 <0>         0.0000
     32 O4         -5.9002    4.1822    7.6323 O.3       1 <0>         0.0000
     33 H1         -1.4457    3.1070    0.4622 H         1 <0>         0.0000
     34 H2         -1.2092    1.0373   -0.8912 H         1 <0>         0.0000
     35 H3         -4.9819   -3.7741   -2.6133 H         1 <0>         0.0000
     36 H4         -2.7647    3.1127    2.5558 H         1 <0>         0.0000
     37 H5         -4.4457    0.0538    6.1785 H         1 <0>         0.0000
     38 H6         -4.8832    3.2531    3.3461 H         1 <0>         0.0000
     39 H7         -3.3404   -3.5239   -0.7519 H         1 <0>         0.0000
     40 H8         -2.2799   -1.0857   -0.1489 H         1 <0>         0.0000
     41 H9         -7.3667   -3.1193   -2.2741 H         1 <0>         0.0000
     42 H10        -5.2137    1.5324    7.9796 H         1 <0>         0.0000
     43 H11        -5.6208    4.7655    5.1665 H         1 <0>         0.0000
     44 H12        -6.4345   -2.0008    1.7990 H         1 <0>         0.0000
     45 H13        -7.1756    5.2091   11.9335 H         1 <0>         0.0000
     46 H14        -7.5551    3.5435   11.2882 H         1 <0>         0.0000
     47 H15        -8.6617    4.5678    9.2529 H         1 <0>         0.0000
     48 H16        -8.3023    6.2408    9.8949 H         1 <0>         0.0000
     49 H17        -5.8484    5.7257    9.8620 H         1 <0>         0.0000
     50 H18        -9.8807   -1.4622    1.0304 H         1 <0>         0.0000
     51 H19        -8.2910   -0.7096    1.3646 H         1 <0>         0.0000
     52 H20        -8.6293   -2.3488    1.9582 H         1 <0>         0.0000
     53 H21        -4.1582   -3.1954    2.6293 H         1 <0>         0.0000
     54 H22        -2.8379   -2.8884    1.4992 H         1 <0>         0.0000
     55 H23        -6.7471    2.8926    9.0250 H         1 <0>         0.0000
     56 H24        -5.0671    3.3687    9.3509 H         1 <0>         0.0000
@<TRIPOS>BOND
     1    1    2 ar
     2    1    4 ar
     3    1   33 1
     4    2    8 ar
     5    2   34 1
     6    3    7 ar
     7    3    9 ar
     8    3   35 1
     9    4   13 ar
    10    4   36 1
    11    5   10 ar
    12    5   14 ar
    13    5   37 1
    14    6   11 ar
    15    6   14 ar
    16    6   38 1
    17    7   16 ar
    18    7   39 1
    19    8   17 ar
    20    8   40 1
    21    9   19 ar
    22    9   41 1
    23   10   18 ar
    24   10   42 1
    25   11   18 ar
    26   11   43 1
    27   12   16 ar
    28   12   19 ar
    29   12   44 1
    30   13   15 1
    31   13   17 ar
    32   14   15 1
    33   15   20 2
    34   16   26 1
    35   17   28 1
    36   18   32 1
    37   19   31 1
    38   20   21 1
    39   20   28 1
    40   21   29 1
    41   21   30 2
    42   22   23 1
    43   22   24 1
    44   22   45 1
    45   22   46 1
    46   23   24 1
    47   23   47 1
    48   23   48 1
    49   24   27 1
    50   24   49 1
    51   25   31 1
    52   25   50 1
    53   25   51 1
    54   25   52 1
    55   26   28 1
    56   26   53 1
    57   26   54 1
    58   27   32 1
    59   27   55 1
    60   27   56 1
