@<TRIPOS>MOLECULE
*****
   53    56     0     0     0
SMALL
NO_CHARGES

@<TRIPOS>ATOM
      1 C1         -1.7918    0.9379   -0.1267 C.ar      1 <0>         0.0000
      2 C2         -2.8312    0.0496    0.1512 C.ar      1 <0>         0.0000
      3 C3          1.3507   -5.2104   -0.7538 C.ar      1 <0>         0.0000
      4 C4          0.5050   -3.3761   -2.1115 C.ar      1 <0>         0.0000
      5 C5          0.0406   -5.5901   -0.4523 C.ar      1 <0>         0.0000
      6 C6         -0.8028   -3.7441   -1.8029 C.ar      1 <0>         0.0000
      7 C7         -1.2477   -1.6996    0.8380 C.ar      1 <0>         0.0000
      8 C8         -0.1910   -0.8124    0.5624 C.ar      1 <0>         0.0000
      9 C9          1.2396   -0.9169    0.6474 C.2       1 <0>         0.0000
     10 C10        -0.4798    0.4970    0.0764 C.ar      1 <0>         0.0000
     11 C11        -2.5360   -1.2396    0.6234 C.ar      1 <0>         0.0000
     12 C12         1.5704   -4.1022   -1.5720 C.ar      1 <0>         0.0000
     13 C13        -1.0229   -4.8470   -0.9713 C.ar      1 <0>         0.0000
     14 C14         1.7609    0.2903    0.2300 C.2       1 <0>         0.0000
     15 C15         0.8499    4.9118    0.4578 C.2       1 <0>         0.0000
     16 C16         2.1063   -2.0822    1.0241 C.3       1 <0>         0.0000
     17 C17         3.2209    0.6073    0.1006 C.3       1 <0>         0.0000
     18 C18         4.0749   -0.5579    0.6531 C.3       1 <0>         0.0000
     19 C19         3.4771   -1.9395    0.3299 C.3       1 <0>         0.0000
     20 C20         0.9456    7.0953    1.3615 C.3       1 <0>         0.0000
     21 C21         0.7522    3.4391    0.7926 C.3       1 <0>         0.0000
     22 C22         0.8679    2.5592   -0.4578 C.3       1 <0>         0.0000
     23 N1          0.7301    1.1488   -0.1401 N.pl3     1 <0>         0.0000
     24 N2          3.4278   -2.0650   -1.1414 N.pl3     1 <0>         0.0000
     25 O1          0.8974    5.3687   -0.6694 O.2       1 <0>         0.0000
     26 O2          4.1530   -4.4797   -1.2022 O.2       1 <0>         0.0000
     27 O3          3.3512   -3.2673   -3.3230 O.2       1 <0>         0.0000
     28 O4          0.8722    5.6677    1.5770 O.3       1 <0>         0.0000
     29 F1         -3.5825   -2.0738    0.8818 F         1 <0>         0.0000
     30 S1          3.2543   -3.5530   -1.8918 S.o2      1 <0>         0.0000
     31 Cl1        -2.6631   -5.2912   -0.5605 Cl        1 <0>         0.0000
     32 H1         -2.0117    1.9362   -0.4943 H         1 <0>         0.0000
     33 H2         -3.8689    0.3354    0.0118 H         1 <0>         0.0000
     34 H3          2.1970   -5.7592   -0.3532 H         1 <0>         0.0000
     35 H4          0.6879   -2.5283   -2.7648 H         1 <0>         0.0000
     36 H5         -0.1533   -6.4484    0.1830 H         1 <0>         0.0000
     37 H6         -1.6426   -3.1777   -2.1905 H         1 <0>         0.0000
     38 H7         -1.0815   -2.7072    1.2046 H         1 <0>         0.0000
     39 H8          2.2724   -2.1231    2.1090 H         1 <0>         0.0000
     40 H9          1.6296   -3.0264    0.7545 H         1 <0>         0.0000
     41 H10         3.4755    0.7950   -0.9518 H         1 <0>         0.0000
     42 H11         3.4802    1.5295    0.6349 H         1 <0>         0.0000
     43 H12         5.0890   -0.4935    0.2506 H         1 <0>         0.0000
     44 H13         4.1420   -0.4731    1.7429 H         1 <0>         0.0000
     45 H14         4.1594   -2.7174    0.6785 H         1 <0>         0.0000
     46 H15         0.9533    7.5379    2.3570 H         1 <0>         0.0000
     47 H16         0.0784    7.4380    0.7926 H         1 <0>         0.0000
     48 H17         1.8576    7.3504    0.8174 H         1 <0>         0.0000
     49 H18        -0.2032    3.2615    1.2983 H         1 <0>         0.0000
     50 H19         1.5292    3.1876    1.5216 H         1 <0>         0.0000
     51 H20         0.1043    2.8376   -1.1873 H         1 <0>         0.0000
     52 H21         1.8304    2.7217   -0.9463 H         1 <0>         0.0000
     53 H22         2.8329   -1.3781   -1.6013 H         1 <0>         0.0000
@<TRIPOS>BOND
     1    1    2 ar
     2    1   10 ar
     3    1   32 1
     4    2   11 ar
     5    2   33 1
     6    3    5 ar
     7    3   12 ar
     8    3   34 1
     9    4    6 ar
    10    4   12 ar
    11    4   35 1
    12    5   13 ar
    13    5   36 1
    14    6   13 ar
    15    6   37 1
    16    7    8 ar
    17    7   11 ar
    18    7   38 1
    19    8    9 1
    20    8   10 ar
    21    9   14 2
    22    9   16 1
    23   10   23 1
    24   11   29 1
    25   12   30 1
    26   13   31 1
    27   14   17 1
    28   14   23 1
    29   15   21 1
    30   15   25 2
    31   15   28 1
    32   16   19 1
    33   16   39 1
    34   16   40 1
    35   17   18 1
    36   17   41 1
    37   17   42 1
    38   18   19 1
    39   18   43 1
    40   18   44 1
    41   19   24 1
    42   19   45 1
    43   20   28 1
    44   20   46 1
    45   20   47 1
    46   20   48 1
    47   21   22 1
    48   21   49 1
    49   21   50 1
    50   22   23 1
    51   22   51 1
    52   22   52 1
    53   24   30 1
    54   24   53 1
    55   26   30 2
    56   27   30 2
