@<TRIPOS>MOLECULE
*****
   64    66     0     0     0
SMALL
NO_CHARGES

@<TRIPOS>ATOM
      1 C1          4.3479    0.9591    3.6455 C.ar      1 <0>         0.0000
      2 C2          5.8786   -0.8685    3.2622 C.ar      1 <0>         0.0000
      3 C3          5.3570    1.6893    4.2787 C.ar      1 <0>         0.0000
      4 C4          6.9019   -0.1525    3.8887 C.ar      1 <0>         0.0000
      5 C5          4.5944   -0.3198    3.1243 C.ar      1 <0>         0.0000
      6 C6          3.5143   -1.0889    2.4356 C.ar      1 <0>         0.0000
      7 C7          3.0613   -0.6956    1.1631 C.ar      1 <0>         0.0000
      8 C8          2.9541   -2.2222    3.0563 C.ar      1 <0>         0.0000
      9 C9          6.6206    1.1171    4.3832 C.ar      1 <0>         0.0000
     10 C10         2.0213   -1.4457    0.5758 C.ar      1 <0>         0.0000
     11 C11         1.9682   -2.9404    2.3561 C.ar      1 <0>         0.0000
     12 C12         1.1742    3.9740   -1.8063 C.3       1 <0>         0.0000
     13 C13         1.0274    4.0197   -0.2784 C.3       1 <0>         0.0000
     14 C14         2.0744    2.8100   -2.2455 C.3       1 <0>         0.0000
     15 C15         2.4005    4.0650    0.4092 C.3       1 <0>         0.0000
     16 C16         3.4406    2.8704   -1.5479 C.3       1 <0>         0.0000
     17 C17         3.3094    2.8993   -0.0139 C.3       1 <0>         0.0000
     18 C18        -0.0291   -0.5135   -0.5077 C.3       1 <0>         0.0000
     19 C19         1.3535   -2.2720   -1.7140 C.3       1 <0>         0.0000
     20 C20         1.3410   -5.3230    1.8326 C.3       1 <0>         0.0000
     21 C21        -0.1017   -3.9176    3.3776 C.3       1 <0>         0.0000
     22 C22         3.6614    0.4968    0.4502 C.3       1 <0>         0.0000
     23 C23         3.4020   -2.6455    4.4320 C.3       1 <0>         0.0000
     24 C24         1.3839   -1.0728   -0.7535 C.3       1 <0>         0.0000
     25 C25         1.3306   -4.2125    2.8956 C.3       1 <0>         0.0000
     26 N1          1.5112   -2.5331    1.1657 N.ar      1 <0>         0.0000
     27 N2          2.7388    1.6384    0.4869 N.3       1 <0>         0.0000
     28 O1          4.4151   -3.6622    4.2946 O.3       1 <0>         0.0000
     29 F1          7.6108    1.8196    4.9940 F         1 <0>         0.0000
     30 H1          3.3520    1.3868    3.5675 H         1 <0>         0.0000
     31 H2          6.0718   -1.8665    2.8819 H         1 <0>         0.0000
     32 H3          5.1754    2.6791    4.6865 H         1 <0>         0.0000
     33 H4          7.9007   -0.5646    3.9962 H         1 <0>         0.0000
     34 H5          1.6106    4.9207   -2.1562 H         1 <0>         0.0000
     35 H6          0.1880    3.8899   -2.2780 H         1 <0>         0.0000
     36 H7          0.4346    4.8926    0.0204 H         1 <0>         0.0000
     37 H8          0.4815    3.1309    0.0576 H         1 <0>         0.0000
     38 H9          1.5842    1.8628   -1.9963 H         1 <0>         0.0000
     39 H10         2.2116    2.8258   -3.3333 H         1 <0>         0.0000
     40 H11         2.9071    5.0046    0.1539 H         1 <0>         0.0000
     41 H12         2.2834    4.0644    1.5017 H         1 <0>         0.0000
     42 H13         4.0693    2.0300   -1.8619 H         1 <0>         0.0000
     43 H14         3.9721    3.7802   -1.8572 H         1 <0>         0.0000
     44 H15         4.3143    3.0661    0.4159 H         1 <0>         0.0000
     45 H16        -0.6567   -1.2629   -0.0148 H         1 <0>         0.0000
     46 H17        -0.5008   -0.2370   -1.4574 H         1 <0>         0.0000
     47 H18         0.0168    0.3792    0.1233 H         1 <0>         0.0000
     48 H19         0.7598   -3.0878   -1.2937 H         1 <0>         0.0000
     49 H20         2.3629   -2.6534   -1.9043 H         1 <0>         0.0000
     50 H21         0.9143   -1.9777   -2.6737 H         1 <0>         0.0000
     51 H22         0.7644   -5.0216    0.9546 H         1 <0>         0.0000
     52 H23         0.9045   -6.2411    2.2415 H         1 <0>         0.0000
     53 H24         2.3632   -5.5451    1.5096 H         1 <0>         0.0000
     54 H25        -0.7112   -3.5504    2.5460 H         1 <0>         0.0000
     55 H26        -0.1102   -3.1550    4.1649 H         1 <0>         0.0000
     56 H27        -0.5706   -4.8240    3.7765 H         1 <0>         0.0000
     57 H28         4.6406    0.7417    0.8876 H         1 <0>         0.0000
     58 H29         3.8507    0.2361   -0.5954 H         1 <0>         0.0000
     59 H30         3.8037   -1.7828    4.9743 H         1 <0>         0.0000
     60 H31         2.5520   -3.0331    5.0070 H         1 <0>         0.0000
     61 H32         1.9688   -0.2745   -1.2122 H         1 <0>         0.0000
     62 H33         1.9206   -4.5687    3.7430 H         1 <0>         0.0000
     63 H34         2.4446    1.7748    1.4520 H         1 <0>         0.0000
     64 H35         4.7126   -3.9056    5.1861 H         1 <0>         0.0000
@<TRIPOS>BOND
     1    1    3 ar
     2    1    5 ar
     3    1   30 1
     4    2    4 ar
     5    2    5 ar
     6    2   31 1
     7    3    9 ar
     8    3   32 1
     9    4    9 ar
    10    4   33 1
    11    5    6 1
    12    6    7 ar
    13    6    8 ar
    14    7   10 ar
    15    7   22 1
    16    8   11 ar
    17    8   23 1
    18    9   29 1
    19   10   24 1
    20   10   26 ar
    21   11   25 1
    22   11   26 ar
    23   12   14 1
    24   12   13 1
    25   12   34 1
    26   12   35 1
    27   13   15 1
    28   13   36 1
    29   13   37 1
    30   14   16 1
    31   14   38 1
    32   14   39 1
    33   15   17 1
    34   15   40 1
    35   15   41 1
    36   16   17 1
    37   16   42 1
    38   16   43 1
    39   17   27 1
    40   17   44 1
    41   18   24 1
    42   18   45 1
    43   18   46 1
    44   18   47 1
    45   19   24 1
    46   19   48 1
    47   19   49 1
    48   19   50 1
    49   20   25 1
    50   20   51 1
    51   20   52 1
    52   20   53 1
    53   21   25 1
    54   21   54 1
    55   21   55 1
    56   21   56 1
    57   22   27 1
    58   22   57 1
    59   22   58 1
    60   23   28 1
    61   23   59 1
    62   23   60 1
    63   24   61 1
    64   25   62 1
    65   27   63 1
    66   28   64 1
