@<TRIPOS>MOLECULE
*****
   69    70     0     0     0
SMALL
NO_CHARGES

@<TRIPOS>ATOM
      1 C1         -1.4976    3.1753   -1.3708 C.ar      1 <0>         0.0000
      2 C2         -0.4078    3.6501   -0.6185 C.ar      1 <0>         0.0000
      3 C3         -1.7756    1.8153   -1.3833 C.ar      1 <0>         0.0000
      4 C4          0.3854    2.7782    0.1223 C.ar      1 <0>         0.0000
      5 C5         -0.9748    0.9156   -0.6552 C.ar      1 <0>         0.0000
      6 C6          0.0977    1.4075    0.1078 C.ar      1 <0>         0.0000
      7 C7         -1.2194   -0.5341   -0.7225 C.2       1 <0>         0.0000
      8 C8         -0.0809   -1.4287   -0.1705 C.3       1 <0>         0.0000
      9 C9          0.4232   -0.7534    1.1538 C.3       1 <0>         0.0000
     10 C10        -0.7036   -0.6391    2.1952 C.3       1 <0>         0.0000
     11 C11         4.4753   -1.0007    7.0410 C.3       1 <0>         0.0000
     12 C12         5.5565    0.8334    3.1568 C.3       1 <0>         0.0000
     13 C13         2.7968   -3.1868   -3.6201 C.3       1 <0>         0.0000
     14 C14         1.2489   -6.6039   -0.2138 C.3       1 <0>         0.0000
     15 C15         1.0414   -1.4269   -1.2506 C.3       1 <0>         0.0000
     16 C16        -0.6772   -2.8413    0.0315 C.3       1 <0>         0.0000
     17 C17         1.6589   -1.4323    1.7679 C.3       1 <0>         0.0000
     18 C18         2.2674   -0.7135    2.9786 C.3       1 <0>         0.0000
     19 C19         3.5684   -1.0534    5.8081 C.3       1 <0>         0.0000
     20 C20         4.6907    0.5791    4.3916 C.3       1 <0>         0.0000
     21 C21         3.5931   -1.3834    3.3906 C.3       1 <0>         0.0000
     22 C22         0.5443   -1.6864   -2.6728 C.3       1 <0>         0.0000
     23 C23         0.3063   -3.9789    0.3669 C.3       1 <0>         0.0000
     24 N1          4.2880   -0.8234    4.5505 N.3       1 <0>         0.0000
     25 O1         -2.2213   -1.0101   -1.2436 O.2       1 <0>         0.0000
     26 O2          1.3126   -1.6736   -5.2207 O.2       1 <0>         0.0000
     27 O3          2.8143   -0.5305   -3.4955 O.2       1 <0>         0.0000
     28 O4         -1.2901   -5.9045   -0.6196 O.2       1 <0>         0.0000
     29 O5          0.5172   -4.9008   -2.1178 O.2       1 <0>         0.0000
     30 O6          0.8999    0.5920    0.8425 O.3       1 <0>         0.0000
     31 S1          1.9084   -1.6330   -3.8752 S.o2      1 <0>         0.0000
     32 S2          0.0659   -5.3640   -0.7888 S.o2      1 <0>         0.0000
     33 H1         -2.1088    3.8670   -1.9426 H         1 <0>         0.0000
     34 H2         -0.1808    4.7130   -0.6084 H         1 <0>         0.0000
     35 H3         -2.5996    1.4092   -1.9625 H         1 <0>         0.0000
     36 H4          1.2227    3.1343    0.7147 H         1 <0>         0.0000
     37 H5         -0.4027    0.0534    2.9831 H         1 <0>         0.0000
     38 H6         -0.9032   -1.6103    2.6556 H         1 <0>         0.0000
     39 H7         -1.6385   -0.2722    1.7656 H         1 <0>         0.0000
     40 H8          5.3211   -1.6845    6.9190 H         1 <0>         0.0000
     41 H9          4.8712    0.0022    7.2250 H         1 <0>         0.0000
     42 H10         3.9123   -1.2968    7.9330 H         1 <0>         0.0000
     43 H11         6.3988    0.1347    3.1271 H         1 <0>         0.0000
     44 H12         4.9947    0.7354    2.2229 H         1 <0>         0.0000
     45 H13         5.9565    1.8521    3.1896 H         1 <0>         0.0000
     46 H14         3.5631   -3.2107   -4.3974 H         1 <0>         0.0000
     47 H15         3.2614   -3.1782   -2.6334 H         1 <0>         0.0000
     48 H16         2.1025   -4.0201   -3.7211 H         1 <0>         0.0000
     49 H17         1.1580   -7.4457   -0.9027 H         1 <0>         0.0000
     50 H18         2.2570   -6.1885   -0.2551 H         1 <0>         0.0000
     51 H19         0.9804   -6.9131    0.7975 H         1 <0>         0.0000
     52 H20         1.7829   -2.1868   -0.9924 H         1 <0>         0.0000
     53 H21         1.5685   -0.4721   -1.2348 H         1 <0>         0.0000
     54 H22        -1.2202   -3.0771   -0.8853 H         1 <0>         0.0000
     55 H23        -1.4531   -2.8084    0.7968 H         1 <0>         0.0000
     56 H24         1.3843   -2.4469    2.0689 H         1 <0>         0.0000
     57 H25         2.4304   -1.5191    0.9960 H         1 <0>         0.0000
     58 H26         2.4385    0.3359    2.7271 H         1 <0>         0.0000
     59 H27         1.5706   -0.7330    3.8226 H         1 <0>         0.0000
     60 H28         2.7303   -0.3437    5.9424 H         1 <0>         0.0000
     61 H29         3.1220   -2.0527    5.7508 H         1 <0>         0.0000
     62 H30         3.8167    1.2576    4.3749 H         1 <0>         0.0000
     63 H31         5.2708    0.8532    5.2770 H         1 <0>         0.0000
     64 H32         4.2791   -1.3649    2.5368 H         1 <0>         0.0000
     65 H33         3.4098   -2.4445    3.6046 H         1 <0>         0.0000
     66 H34         0.0597   -2.6554   -2.8011 H         1 <0>         0.0000
     67 H35        -0.1282   -0.9044   -3.0340 H         1 <0>         0.0000
     68 H36         1.3559   -3.7078    0.2591 H         1 <0>         0.0000
     69 H37         0.1500   -4.3824    1.3704 H         1 <0>         0.0000
@<TRIPOS>BOND
     1    1    2 ar
     2    1    3 ar
     3    1   33 1
     4    2    4 ar
     5    2   34 1
     6    3    5 ar
     7    3   35 1
     8    4    6 ar
     9    4   36 1
    10    5    6 ar
    11    5    7 1
    12    6   30 1
    13    7    8 1
    14    7   25 2
    15    8    9 1
    16    8   15 1
    17    8   16 1
    18    9   10 1
    19    9   17 1
    20    9   30 1
    21   10   37 1
    22   10   38 1
    23   10   39 1
    24   11   19 1
    25   11   40 1
    26   11   41 1
    27   11   42 1
    28   12   20 1
    29   12   43 1
    30   12   44 1
    31   12   45 1
    32   13   31 1
    33   13   46 1
    34   13   47 1
    35   13   48 1
    36   14   32 1
    37   14   49 1
    38   14   50 1
    39   14   51 1
    40   15   22 1
    41   15   52 1
    42   15   53 1
    43   16   23 1
    44   16   54 1
    45   16   55 1
    46   17   18 1
    47   17   56 1
    48   17   57 1
    49   18   21 1
    50   18   58 1
    51   18   59 1
    52   19   24 1
    53   19   60 1
    54   19   61 1
    55   20   24 1
    56   20   62 1
    57   20   63 1
    58   21   24 1
    59   21   64 1
    60   21   65 1
    61   22   31 1
    62   22   66 1
    63   22   67 1
    64   23   32 1
    65   23   68 1
    66   23   69 1
    67   26   31 2
    68   27   31 2
    69   28   32 2
    70   29   32 2
