@<TRIPOS>MOLECULE
*****
   50    54     0     0     0
SMALL
NO_CHARGES

@<TRIPOS>ATOM
      1 C1         -4.3941   -1.6457    4.4874 C.ar      1 <0>         0.0000
      2 C2          1.5591   -1.2468   -0.5976 C.ar      1 <0>         0.0000
      3 C3         -4.2701   -0.9818    3.2644 C.ar      1 <0>         0.0000
      4 C4          0.3764   -0.6345   -0.1863 C.ar      1 <0>         0.0000
      5 C5         -3.8171   -1.1161    5.6456 C.ar      1 <0>         0.0000
      6 C6          4.6848   -2.6511    0.5036 C.ar      1 <0>         0.0000
      7 C7          0.4696   -1.9452    1.8443 C.ar      1 <0>         0.0000
      8 C8          3.6684   -3.2860   -1.5671 C.ar      1 <0>         0.0000
      9 C9         -2.9847    0.7623    4.3400 C.ar      1 <0>         0.0000
     10 C10         5.8876   -3.1316   -0.0130 C.ar      1 <0>         0.0000
     11 C11         2.2289   -2.2005    0.1817 C.ar      1 <0>         0.0000
     12 C12         3.5327   -2.7313   -0.2891 C.ar      1 <0>         0.0000
     13 C13         1.6496   -2.5625    1.4172 C.ar      1 <0>         0.0000
     14 C14        -3.5663    0.2292    3.1799 C.ar      1 <0>         0.0000
     15 C15        -0.1736   -0.9788    1.0591 C.ar      1 <0>         0.0000
     16 C16        -3.1167    0.0888    5.5550 C.ar      1 <0>         0.0000
     17 C17         4.9175   -3.7480   -2.0022 C.ar      1 <0>         0.0000
     18 C18         2.2110   -3.6257    2.2674 C.2       1 <0>         0.0000
     19 C19        -2.1814    0.5275    1.0137 C.2       1 <0>         0.0000
     20 C20        -4.6092    1.3098    1.0512 C.3       1 <0>         0.0000
     21 C21        -3.7920    2.3757    1.7160 C.3       1 <0>         0.0000
     22 C22        -3.3778    0.9144    1.8590 C.3       1 <0>         0.0000
     23 C23         5.0955   -4.3738   -3.3633 C.3       1 <0>         0.0000
     24 N1          6.0178   -3.6703   -1.2320 N.ar      1 <0>         0.0000
     25 N2          2.7521   -4.7932    1.8001 N.2       1 <0>         0.0000
     26 N3          2.1937   -3.5894    3.6054 N.2       1 <0>         0.0000
     27 N4          3.0874   -5.5025    2.8492 N.2       1 <0>         0.0000
     28 N5          2.7434   -4.7654    3.9042 N.pl3     1 <0>         0.0000
     29 N6         -1.3552   -0.4150    1.5795 N.am      1 <0>         0.0000
     30 O1         -1.9863    1.0353   -0.0897 O.2       1 <0>         0.0000
     31 Cl1        -2.3851    0.7706    6.9982 Cl        1 <0>         0.0000
     32 H1         -4.9427   -2.5818    4.5455 H         1 <0>         0.0000
     33 H2          1.9992   -0.9489   -1.5451 H         1 <0>         0.0000
     34 H3         -4.7190   -1.3994    2.3672 H         1 <0>         0.0000
     35 H4         -0.1122    0.1056   -0.8046 H         1 <0>         0.0000
     36 H5         -3.9102   -1.6237    6.6003 H         1 <0>         0.0000
     37 H6          4.6514   -2.2126    1.4968 H         1 <0>         0.0000
     38 H7          0.0397   -2.2444    2.7971 H         1 <0>         0.0000
     39 H8          2.7998   -3.3834   -2.2125 H         1 <0>         0.0000
     40 H9         -2.4327    1.6961    4.2913 H         1 <0>         0.0000
     41 H10         6.7976   -3.0761    0.5834 H         1 <0>         0.0000
     42 H11        -5.5715    1.0563    1.4848 H         1 <0>         0.0000
     43 H12        -4.5258    1.2130   -0.0258 H         1 <0>         0.0000
     44 H13        -3.1624    2.9922    1.0838 H         1 <0>         0.0000
     45 H14        -4.1948    2.8524    2.6043 H         1 <0>         0.0000
     46 H15         5.8898   -3.8604   -3.9138 H         1 <0>         0.0000
     47 H16         5.3994   -5.4206   -3.2585 H         1 <0>         0.0000
     48 H17         4.1752   -4.3362   -3.9521 H         1 <0>         0.0000
     49 H18         2.9016   -5.0742    4.8573 H         1 <0>         0.0000
     50 H19        -1.6287   -0.7535    2.4939 H         1 <0>         0.0000
@<TRIPOS>BOND
     1    1    3 ar
     2    1    5 ar
     3    1   32 1
     4    2    4 ar
     5    2   11 ar
     6    2   33 1
     7    3   14 ar
     8    3   34 1
     9    4   15 ar
    10    4   35 1
    11    5   16 ar
    12    5   36 1
    13    6   10 ar
    14    6   12 ar
    15    6   37 1
    16    7   13 ar
    17    7   15 ar
    18    7   38 1
    19    8   12 ar
    20    8   17 ar
    21    8   39 1
    22    9   14 ar
    23    9   16 ar
    24    9   40 1
    25   10   24 ar
    26   10   41 1
    27   11   12 1
    28   11   13 ar
    29   13   18 1
    30   14   22 1
    31   15   29 1
    32   16   31 1
    33   17   23 1
    34   17   24 ar
    35   18   25 1
    36   18   26 2
    37   19   22 1
    38   19   29 am
    39   19   30 2
    40   20   21 1
    41   20   22 1
    42   20   42 1
    43   20   43 1
    44   21   22 1
    45   21   44 1
    46   21   45 1
    47   23   46 1
    48   23   47 1
    49   23   48 1
    50   25   27 2
    51   26   28 1
    52   27   28 1
    53   28   49 1
    54   29   50 1
