@<TRIPOS>MOLECULE
*****
   35    37     0     0     0
SMALL
NO_CHARGES

@<TRIPOS>ATOM
      1 C1         -2.4956    1.7094    1.3848 C.ar      1 <0>         0.0000
      2 C2         -2.1904    2.7420    0.4868 C.ar      1 <0>         0.0000
      3 C3         -1.7564    0.5199    1.3757 C.ar      1 <0>         0.0000
      4 C4         -1.1423    2.5967   -0.4309 C.ar      1 <0>         0.0000
      5 C5         -0.7145    0.3834    0.4589 C.ar      1 <0>         0.0000
      6 C6         -0.4117    1.4092   -0.4329 C.ar      1 <0>         0.0000
      7 C7          1.1003   -1.0780    1.4711 C.3       1 <0>         0.0000
      8 C8         -0.5014   -2.0589   -0.2064 C.3       1 <0>         0.0000
      9 C9          2.0363   -2.2682    1.2045 C.3       1 <0>         0.0000
     10 C10         0.4929   -3.2134   -0.4119 C.3       1 <0>         0.0000
     11 C11         0.2239   -0.7764    0.2414 C.3       1 <0>         0.0000
     12 C12         0.7526    0.9993   -1.3068 C.3       1 <0>         0.0000
     13 C13         0.3654    0.9092   -2.7882 C.3       1 <0>         0.0000
     14 C14         1.9773    1.9005   -1.1062 C.3       1 <0>         0.0000
     15 N1          1.3414   -3.4828    0.7568 N.3       1 <0>         0.0000
     16 O1          1.0856   -0.3331   -0.8401 O.3       1 <0>         0.0000
     17 H1         -3.3114    1.8342    2.0922 H         1 <0>         0.0000
     18 H2         -2.7717    3.6603    0.5040 H         1 <0>         0.0000
     19 H3         -1.9959   -0.2791    2.0739 H         1 <0>         0.0000
     20 H4         -0.9078    3.3994   -1.1264 H         1 <0>         0.0000
     21 H5          0.4468   -1.3038    2.3246 H         1 <0>         0.0000
     22 H6          1.6745   -0.1806    1.7272 H         1 <0>         0.0000
     23 H7         -1.0535   -1.8512   -1.1298 H         1 <0>         0.0000
     24 H8         -1.2376   -2.3352    0.5605 H         1 <0>         0.0000
     25 H9          2.7548   -1.9888    0.4264 H         1 <0>         0.0000
     26 H10         2.6118   -2.5080    2.1051 H         1 <0>         0.0000
     27 H11        -0.0415   -4.1328   -0.6739 H         1 <0>         0.0000
     28 H12         1.1510   -2.9709   -1.2533 H         1 <0>         0.0000
     29 H13         1.1984    0.4990   -3.3674 H         1 <0>         0.0000
     30 H14         0.1175    1.8984   -3.1876 H         1 <0>         0.0000
     31 H15        -0.5028    0.2566   -2.9143 H         1 <0>         0.0000
     32 H16         2.8296    1.5020   -1.6652 H         1 <0>         0.0000
     33 H17         2.2449    1.9467   -0.0470 H         1 <0>         0.0000
     34 H18         1.7751    2.9178   -1.4583 H         1 <0>         0.0000
     35 H19         0.7531   -3.8233    1.5176 H         1 <0>         0.0000
@<TRIPOS>BOND
     1    1    2 ar
     2    1    3 ar
     3    1   17 1
     4    2    4 ar
     5    2   18 1
     6    3    5 ar
     7    3   19 1
     8    4    6 ar
     9    4   20 1
    10    5    6 ar
    11    5   11 1
    12    6   12 1
    13    7    9 1
    14    7   11 1
    15    7   21 1
    16    7   22 1
    17    8   10 1
    18    8   11 1
    19    8   23 1
    20    8   24 1
    21    9   15 1
    22    9   25 1
    23    9   26 1
    24   10   15 1
    25   10   27 1
    26   10   28 1
    27   11   16 1
    28   12   13 1
    29   12   14 1
    30   12   16 1
    31   13   29 1
    32   13   30 1
    33   13   31 1
    34   14   32 1
    35   14   33 1
    36   14   34 1
    37   15   35 1
