@<TRIPOS>MOLECULE
*****
   20    21     0     0     0
SMALL
NO_CHARGES

@<TRIPOS>ATOM
      1 C1         -3.0056   -2.5630    0.6047 C.2       1 <0>         0.0000
      2 C2         -3.6090   -3.8331    0.8611 C.2       1 <0>         0.0000
      3 C3         -1.7925   -2.8201    0.0131 C.2       1 <0>         0.0000
      4 C4         -2.7105   -4.7588    0.4054 C.2       1 <0>         0.0000
      5 C5         -0.8829    0.1950    0.4770 C.2       1 <0>         0.0000
      6 C6          0.4048   -1.6938    0.6461 C.3       1 <0>         0.0000
      7 C7         -0.6661   -1.9433   -0.4488 C.3       1 <0>         0.0000
      8 N1         -1.0859   -0.5710   -0.6650 N.am      1 <0>         0.0000
      9 N2         -2.7677   -6.1877    0.3880 N.pl3     1 <0>         0.0000
     10 O1         -3.7943   -6.6949    0.8634 O.3       1 <0>         0.0000
     11 O2         -1.3544    1.2764    0.7344 O.2       1 <0>         0.0000
     12 O3         -1.8076   -6.8018   -0.0888 O.2       1 <0>         0.0000
     13 O4         -1.6009   -4.1670   -0.1152 O.3       1 <0>         0.0000
     14 O5         -0.0249   -0.4883    1.3022 O.3       1 <0>         0.0000
     15 H1         -3.4099   -1.5872    0.8387 H         1 <0>         0.0000
     16 H2         -4.5656   -4.0474    1.3156 H         1 <0>         0.0000
     17 H3          0.4626   -2.4936    1.3840 H         1 <0>         0.0000
     18 H4          1.3860   -1.5232    0.1936 H         1 <0>         0.0000
     19 H5         -0.2070   -2.3850   -1.3382 H         1 <0>         0.0000
     20 H6         -1.8968   -0.3473   -1.2287 H         1 <0>         0.0000
@<TRIPOS>BOND
     1    1    2 1
     2    1    3 2
     3    1   15 1
     4    2    4 2
     5    2   16 1
     6    3    7 1
     7    3   13 1
     8    4    9 1
     9    4   13 1
    10    5    8 am
    11    5   11 2
    12    5   14 1
    13    6    7 1
    14    6   14 1
    15    6   17 1
    16    6   18 1
    17    7    8 1
    18    7   19 1
    19    8   20 1
    20    9   10 1
    21    9   12 2
