@<TRIPOS>MOLECULE
*****
   15    15     0     0     0
SMALL
NO_CHARGES

@<TRIPOS>ATOM
      1 C1          0.8453   -0.3090    0.5644 C.ar      1 <0>         0.0000
      2 C2          2.4851   -2.0853    0.2513 C.ar      1 <0>         0.0000
      3 C3          1.0067   -0.4322    1.9333 C.ar      1 <0>         0.0000
      4 C4          1.5906   -1.1416   -0.2894 C.ar      1 <0>         0.0000
      5 C5          2.5975   -2.1505    1.6222 C.ar      1 <0>         0.0000
      6 N1          1.8702   -1.3494    2.4216 N.ar      1 <0>         0.0000
      7 O1          3.3273   -2.8868    3.9881 O.2       1 <0>         0.0000
      8 O2          5.0294   -2.4931    2.0549 O.3       1 <0>         0.0000
      9 S1          3.6732   -3.3091    2.6044 S.o       1 <0>         0.0000
     10 Cl1         1.4154   -1.0075   -1.9862 Cl        1 <0>         0.0000
     11 H1          0.1505    0.4220    0.1658 H         1 <0>         0.0000
     12 H2          3.0792   -2.7304   -0.3879 H         1 <0>         0.0000
     13 H3          0.4696    0.1749    2.6538 H         1 <0>         0.0000
     14 H4          2.0385   -1.4677    3.4365 H         1 <0>         0.0000
     15 H5          5.8325   -3.0162    2.2623 H         1 <0>         0.0000
@<TRIPOS>BOND
     1    1    3 ar
     2    1    4 ar
     3    1   11 1
     4    2    4 ar
     5    2    5 ar
     6    2   12 1
     7    3    6 ar
     8    3   13 1
     9    4   10 1
    10    5    6 ar
    11    5    9 1
    12    6   14 1
    13    7    9 2
    14    8    9 1
    15    8   15 1
