@<TRIPOS>MOLECULE
*****
   35    37     0     0     0
SMALL
NO_CHARGES

@<TRIPOS>ATOM
      1 C1          8.1141   -2.4711    2.3396 C.1       1 <0>         0.0000
      2 C2          6.4001   -6.1511    7.5666 C.ar      1 <0>         0.0000
      3 C3          2.1463   -0.8821   -0.2348 C.ar      1 <0>         0.0000
      4 C4          5.5771   -5.9092    6.4592 C.ar      1 <0>         0.0000
      5 C5          7.7009   -5.6376    7.5921 C.ar      1 <0>         0.0000
      6 C6          0.8837   -0.5386    0.2558 C.ar      1 <0>         0.0000
      7 C7          3.1301   -1.3122    0.6518 C.ar      1 <0>         0.0000
      8 C8          6.0376   -5.1391    5.3945 C.ar      1 <0>         0.0000
      9 C9          8.1711   -4.8838    6.5176 C.ar      1 <0>         0.0000
     10 C10         0.6229   -0.6290    1.6249 C.ar      1 <0>         0.0000
     11 C11         2.8711   -1.4050    2.0329 C.ar      1 <0>         0.0000
     12 C12         7.3393   -4.5988    5.4154 C.ar      1 <0>         0.0000
     13 C13         1.5944   -1.0578    2.5405 C.ar      1 <0>         0.0000
     14 C14         3.9803   -1.8696    2.8808 C.2       1 <0>         0.0000
     15 C15         5.9048   -2.5772    3.3806 C.2       1 <0>         0.0000
     16 C16         7.9076   -3.8160    4.3207 C.2       1 <0>         0.0000
     17 C17         7.3065   -3.0089    3.4015 C.2       1 <0>         0.0000
     18 C18         1.2383   -1.1273    4.0052 C.3       1 <0>         0.0000
     19 N1          8.7891   -2.0454    1.4907 N.1       1 <0>         0.0000
     20 N2          5.2101   -2.2212    2.3386 N.2       1 <0>         0.0000
     21 N3          3.9344   -2.0001    4.1964 N.2       1 <0>         0.0000
     22 O1          5.2213   -2.4616    4.5375 O.3       1 <0>         0.0000
     23 H1          6.0334   -6.7483    8.3971 H         1 <0>         0.0000
     24 H2          2.3638   -0.8150   -1.2971 H         1 <0>         0.0000
     25 H3          4.5747   -6.3268    6.4254 H         1 <0>         0.0000
     26 H4          8.3496   -5.8330    8.4415 H         1 <0>         0.0000
     27 H5          0.1041   -0.2009   -0.4224 H         1 <0>         0.0000
     28 H6          4.1162   -1.5812    0.2899 H         1 <0>         0.0000
     29 H7          5.3949   -4.9824    4.5359 H         1 <0>         0.0000
     30 H8          9.1867   -4.4953    6.5336 H         1 <0>         0.0000
     31 H9         -0.3618   -0.3591    1.9985 H         1 <0>         0.0000
     32 H10         8.9870   -3.9038    4.2129 H         1 <0>         0.0000
     33 H11         1.3641   -2.1389    4.4024 H         1 <0>         0.0000
     34 H12         1.8864   -0.4836    4.6071 H         1 <0>         0.0000
     35 H13         0.2008   -0.8189    4.1578 H         1 <0>         0.0000
@<TRIPOS>BOND
     1    1   17 1
     2    1   19 3
     3    2    5 ar
     4    2    4 ar
     5    2   23 1
     6    3    6 ar
     7    3    7 ar
     8    3   24 1
     9    4    8 ar
    10    4   25 1
    11    5    9 ar
    12    5   26 1
    13    6   10 ar
    14    6   27 1
    15    7   11 ar
    16    7   28 1
    17    8   12 ar
    18    8   29 1
    19    9   12 ar
    20    9   30 1
    21   10   13 ar
    22   10   31 1
    23   11   13 ar
    24   11   14 1
    25   12   16 1
    26   13   18 1
    27   14   20 1
    28   14   21 2
    29   15   17 1
    30   15   20 2
    31   15   22 1
    32   16   17 2
    33   16   32 1
    34   18   33 1
    35   18   34 1
    36   18   35 1
    37   21   22 1
