@<TRIPOS>MOLECULE
*****
   39    41     0     0     0
SMALL
NO_CHARGES

@<TRIPOS>ATOM
      1 C1          2.4973    0.9844    1.0915 C.ar      1 <0>         0.0000
      2 C2          2.3748   -0.3090    1.6206 C.ar      1 <0>         0.0000
      3 C3          1.4466    1.5166    0.3509 C.ar      1 <0>         0.0000
      4 C4          1.2163   -1.0478    1.4060 C.ar      1 <0>         0.0000
      5 C5          0.2704    0.7848    0.1131 C.ar      1 <0>         0.0000
      6 C6          0.1626   -0.5058    0.6555 C.ar      1 <0>         0.0000
      7 C7         -2.2551    2.9798   -5.2713 C.3       1 <0>         0.0000
      8 C8         -1.5154    1.6576   -5.2986 C.3       1 <0>         0.0000
      9 C9         -2.1479    0.5391   -0.5292 C.3       1 <0>         0.0000
     10 C10        -0.8791    1.4023   -0.6650 C.3       1 <0>         0.0000
     11 C11        -1.1329    2.7175   -4.3040 C.3       1 <0>         0.0000
     12 C12        -1.8899   -0.9798   -0.5207 C.3       1 <0>         0.0000
     13 C13        -3.1730   -1.7195   -0.1464 C.3       1 <0>         0.0000
     14 C14        -1.3213   -1.5288   -1.8386 C.3       1 <0>         0.0000
     15 C15        -0.4315    1.6639   -2.1110 C.3       1 <0>         0.0000
     16 N1         -1.4629    2.4854   -2.8707 N.4       1 <0>         0.0000
     17 O1         -0.9572   -1.2868    0.5389 O.3       1 <0>         0.0000
     18 H1          3.3953    1.5687    1.2667 H         1 <0>         0.0000
     19 H2          3.1839   -0.7380    2.2048 H         1 <0>         0.0000
     20 H3          1.5294    2.5333   -0.0317 H         1 <0>         0.0000
     21 H4          1.0978   -2.0471    1.8140 H         1 <0>         0.0000
     22 H5         -2.0689    3.7071   -6.0541 H         1 <0>         0.0000
     23 H6         -3.2750    2.9789   -4.8955 H         1 <0>         0.0000
     24 H7         -2.0430    0.7785   -4.9370 H         1 <0>         0.0000
     25 H8         -0.8151    1.4584   -6.1025 H         1 <0>         0.0000
     26 H9         -2.6227    0.7941    0.4225 H         1 <0>         0.0000
     27 H10        -2.8983    0.7598   -1.3021 H         1 <0>         0.0000
     28 H11        -1.0922    2.3845   -0.2175 H         1 <0>         0.0000
     29 H12        -0.1900    3.2441   -4.4042 H         1 <0>         0.0000
     30 H13        -2.9685   -2.7872   -0.0363 H         1 <0>         0.0000
     31 H14        -3.9332   -1.5931   -0.9237 H         1 <0>         0.0000
     32 H15        -3.5725   -1.3484    0.8011 H         1 <0>         0.0000
     33 H16        -1.3115   -2.6208   -1.8065 H         1 <0>         0.0000
     34 H17        -0.2906   -1.2054   -2.0039 H         1 <0>         0.0000
     35 H18        -1.9364   -1.2257   -2.6944 H         1 <0>         0.0000
     36 H19        -0.2901    0.7530   -2.6878 H         1 <0>         0.0000
     37 H20         0.4934    2.2415   -2.1402 H         1 <0>         0.0000
     38 H21        -1.5907    3.3881   -2.3963 H         1 <0>         0.0000
     39 H22        -2.3700    2.0092   -2.8036 H         1 <0>         0.0000
@<TRIPOS>BOND
     1    1    2 ar
     2    1    3 ar
     3    1   18 1
     4    2    4 ar
     5    2   19 1
     6    3    5 ar
     7    3   20 1
     8    4    6 ar
     9    4   21 1
    10    5    6 ar
    11    5   10 1
    12    6   17 1
    13    7    8 1
    14    7   11 1
    15    7   22 1
    16    7   23 1
    17    8   11 1
    18    8   24 1
    19    8   25 1
    20    9   10 1
    21    9   12 1
    22    9   26 1
    23    9   27 1
    24   10   15 1
    25   10   28 1
    26   11   16 1
    27   11   29 1
    28   12   13 1
    29   12   14 1
    30   12   17 1
    31   13   30 1
    32   13   31 1
    33   13   32 1
    34   14   33 1
    35   14   34 1
    36   14   35 1
    37   15   16 1
    38   15   36 1
    39   15   37 1
    40   16   38 1
    41   16   39 1
