@<TRIPOS>MOLECULE
*****
   31    31     0     0     0
SMALL
NO_CHARGES

@<TRIPOS>ATOM
      1 C1         -0.5005    1.9054    1.2754 C.2       1 <0>         0.0000
      2 C2          1.2390    0.5085    0.1792 C.3       1 <0>         0.0000
      3 C3         -1.1458    0.3537   -0.6034 C.3       1 <0>         0.0000
      4 C4          1.5355   -0.7559   -0.6295 C.3       1 <0>         0.0000
      5 C5         -0.7526   -0.8998   -1.3880 C.3       1 <0>         0.0000
      6 C6         -0.2440    0.5425    0.6208 C.3       1 <0>         0.0000
      7 C7         -0.0767    2.8283    4.7900 C.3       1 <0>         0.0000
      8 C8          1.3602   -1.6909   -3.8312 C.3       1 <0>         0.0000
      9 C9         -0.3996    3.1074    3.3344 C.3       1 <0>         0.0000
     10 N1          0.6528   -0.7926   -1.8001 N.3       1 <0>         0.0000
     11 O1         -0.8246    2.9175    0.6878 O.2       1 <0>         0.0000
     12 O2         -0.5307   -0.5274    1.5255 O.3       1 <0>         0.0000
     13 O3         -0.2505    1.8573    2.6065 O.3       1 <0>         0.0000
     14 O4          0.9668   -2.0195   -2.5023 O.3       1 <0>         0.0000
     15 H1          1.8866    0.5437    1.0626 H         1 <0>         0.0000
     16 H2          1.4517    1.3931   -0.4301 H         1 <0>         0.0000
     17 H3         -1.0615    1.2374   -1.2394 H         1 <0>         0.0000
     18 H4         -2.1850    0.2709   -0.2720 H         1 <0>         0.0000
     19 H5          2.5691   -0.7377   -0.9866 H         1 <0>         0.0000
     20 H6          1.4017   -1.6516   -0.0050 H         1 <0>         0.0000
     21 H7         -0.9173   -1.8033   -0.7834 H         1 <0>         0.0000
     22 H8         -1.3618   -0.9780   -2.2929 H         1 <0>         0.0000
     23 H9         -0.7590    2.0815    5.2067 H         1 <0>         0.0000
     24 H10         0.9492    2.4645    4.9019 H         1 <0>         0.0000
     25 H11        -0.1792    3.7499    5.3718 H         1 <0>         0.0000
     26 H12         1.5834   -2.6439   -4.3197 H         1 <0>         0.0000
     27 H13         2.2542   -1.0546   -3.8372 H         1 <0>         0.0000
     28 H14         0.5535   -1.1799   -4.3717 H         1 <0>         0.0000
     29 H15         0.2761    3.8457    2.8941 H         1 <0>         0.0000
     30 H16        -1.4240    3.4638    3.1990 H         1 <0>         0.0000
     31 H17        -0.1412   -0.2975    2.3851 H         1 <0>         0.0000
@<TRIPOS>BOND
     1    1    6 1
     2    1   11 2
     3    1   13 1
     4    2    4 1
     5    2    6 1
     6    2   15 1
     7    2   16 1
     8    3    5 1
     9    3    6 1
    10    3   17 1
    11    3   18 1
    12    4   10 1
    13    4   19 1
    14    4   20 1
    15    5   10 1
    16    5   21 1
    17    5   22 1
    18    6   12 1
    19    7    9 1
    20    7   23 1
    21    7   24 1
    22    7   25 1
    23    8   14 1
    24    8   26 1
    25    8   27 1
    26    8   28 1
    27    9   13 1
    28    9   29 1
    29    9   30 1
    30   10   14 1
    31   12   31 1
