@<TRIPOS>MOLECULE
*****
   18    18     0     0     0
SMALL
NO_CHARGES

@<TRIPOS>ATOM
      1 C1          4.0502   -2.2331   -0.0866 C.1       1 <0>         0.0000
      2 C2          1.8964   -1.0419   -0.1466 C.ar      1 <0>         0.0000
      3 C3          0.8124   -0.4644    0.5099 C.ar      1 <0>         0.0000
      4 C4          1.7772   -1.0659    2.6595 C.ar      1 <0>         0.0000
      5 C5          2.9339   -1.6383    0.5899 C.ar      1 <0>         0.0000
      6 C6          0.7511   -0.4753    1.9105 C.ar      1 <0>         0.0000
      7 C7          2.8464   -1.6348    1.9902 C.ar      1 <0>         0.0000
      8 C8         -0.3890    0.1302    2.6609 C.2       1 <0>         0.0000
      9 N1          4.9489   -2.7113   -0.6513 N.1       1 <0>         0.0000
     10 N2          3.9267   -2.2567    2.7845 N.pl3     1 <0>         0.0000
     11 O1          3.7966   -3.4498    3.0554 O.3       1 <0>         0.0000
     12 O2         -0.4805    0.1419    3.8727 O.2       1 <0>         0.0000
     13 O3          4.8599   -1.5262    3.1153 O.2       1 <0>         0.0000
     14 O4         -1.3251    0.6734    1.8433 O.3       1 <0>         0.0000
     15 H1          1.9538   -1.0390   -1.2301 H         1 <0>         0.0000
     16 H2          0.0124   -0.0044   -0.0589 H         1 <0>         0.0000
     17 H3          1.7220   -1.0701    3.7435 H         1 <0>         0.0000
     18 H4         -2.0208    1.0389    2.4234 H         1 <0>         0.0000
@<TRIPOS>BOND
     1    1    5 1
     2    1    9 3
     3    2    3 ar
     4    2    5 ar
     5    2   15 1
     6    3    6 ar
     7    3   16 1
     8    4    6 ar
     9    4    7 ar
    10    4   17 1
    11    5    7 ar
    12    6    8 1
    13    7   10 1
    14    8   12 2
    15    8   14 1
    16   10   11 1
    17   10   13 2
    18   14   18 1
