@<TRIPOS>MOLECULE
*****
   21    21     0     0     0
SMALL
NO_CHARGES

@<TRIPOS>ATOM
      1 C1          1.5676    0.4334    1.5538 C.2       1 <0>         0.0000
      2 C2          0.3239   -0.0038    1.0109 C.2       1 <0>         0.0000
      3 C3          1.4914    0.2782    2.9255 C.2       1 <0>         0.0000
      4 C4         -0.4760   -0.4081    2.0669 C.2       1 <0>         0.0000
      5 C5         -0.2187   -0.4960    4.5875 C.3       1 <0>         0.0000
      6 C6         -1.8609   -2.5177    1.9458 C.3       1 <0>         0.0000
      7 C7         -1.8637   -0.9864    2.0448 C.3       1 <0>         0.0000
      8 N1          0.2477   -0.2353    3.2372 N.pl3     1 <0>         0.0000
      9 N2         -2.6082   -0.4232    0.9116 N.3       1 <0>         0.0000
     10 F1         -1.1954   -2.9674    0.8087 F         1 <0>         0.0000
     11 H1          2.4221    0.8111    1.0072 H         1 <0>         0.0000
     12 H2          0.0340   -0.0492   -0.0298 H         1 <0>         0.0000
     13 H3          2.2098    0.4925    3.7056 H         1 <0>         0.0000
     14 H4         -1.0842    0.1269    4.8391 H         1 <0>         0.0000
     15 H5         -0.4921   -1.5478    4.7217 H         1 <0>         0.0000
     16 H6          0.5849   -0.2622    5.2877 H         1 <0>         0.0000
     17 H7         -1.3587   -2.9508    2.8177 H         1 <0>         0.0000
     18 H8         -2.8888   -2.8998    1.8964 H         1 <0>         0.0000
     19 H9         -2.3464   -0.7788    3.0192 H         1 <0>         0.0000
     20 H10        -2.5878    0.5930    0.9605 H         1 <0>         0.0000
     21 H11        -3.5828   -0.7173    0.9466 H         1 <0>         0.0000
@<TRIPOS>BOND
     1    1    2 1
     2    1    3 2
     3    1   11 1
     4    2    4 2
     5    2   12 1
     6    3    8 1
     7    3   13 1
     8    4    7 1
     9    4    8 1
    10    5    8 1
    11    5   14 1
    12    5   15 1
    13    5   16 1
    14    6    7 1
    15    6   10 1
    16    6   17 1
    17    6   18 1
    18    7    9 1
    19    7   19 1
    20    9   20 1
    21    9   21 1
