@<TRIPOS>MOLECULE
*****
   24    24     0     0     0
SMALL
NO_CHARGES

@<TRIPOS>ATOM
      1 C1          1.9273   -1.3882   -0.2039 C.ar      1 <0>         0.0000
      2 C2          0.8332   -0.8160    0.4420 C.ar      1 <0>         0.0000
      3 C3          3.0565   -1.5927    1.9263 C.ar      1 <0>         0.0000
      4 C4          3.0423   -1.7807    0.5432 C.ar      1 <0>         0.0000
      5 C5          0.8439   -0.6304    1.8296 C.ar      1 <0>         0.0000
      6 C6          1.9640   -1.0188    2.5890 C.ar      1 <0>         0.0000
      7 C7          1.9386   -2.2538    4.7886 C.2       1 <0>         0.0000
      8 C8          2.0401   -0.8845    4.1005 C.3       1 <0>         0.0000
      9 C9          4.2563   -2.3531   -0.1492 C.3       1 <0>         0.0000
     10 C10        -0.3456    0.0056    2.4997 C.3       1 <0>         0.0000
     11 O1          2.8833   -2.7913    5.3185 O.2       1 <0>         0.0000
     12 O2          0.7222   -2.8473    4.7579 O.3       1 <0>         0.0000
     13 F1          3.8949   -2.9999   -1.3072 F         1 <0>         0.0000
     14 F2          4.8939   -3.2629    0.6575 F         1 <0>         0.0000
     15 F3         -0.9528   -0.9050    3.3795 F         1 <0>         0.0000
     16 F4         -1.3066    0.3645    1.6027 F         1 <0>         0.0000
     17 H1          1.9100   -1.5390   -1.2783 H         1 <0>         0.0000
     18 H2         -0.0345   -0.5088   -0.1311 H         1 <0>         0.0000
     19 H3          3.9162   -1.9162    2.5066 H         1 <0>         0.0000
     20 H4          1.2640   -0.2249    4.4968 H         1 <0>         0.0000
     21 H5          3.0081   -0.4720    4.3877 H         1 <0>         0.0000
     22 H6          4.9944   -1.5919   -0.4233 H         1 <0>         0.0000
     23 H7         -0.1069    0.8877    3.0998 H         1 <0>         0.0000
     24 H8          0.0780   -2.2909    4.2812 H         1 <0>         0.0000
@<TRIPOS>BOND
     1    1    2 ar
     2    1    4 ar
     3    1   17 1
     4    2    5 ar
     5    2   18 1
     6    3    4 ar
     7    3    6 ar
     8    3   19 1
     9    4    9 1
    10    5    6 ar
    11    5   10 1
    12    6    8 1
    13    7    8 1
    14    7   11 2
    15    7   12 1
    16    8   20 1
    17    8   21 1
    18    9   13 1
    19    9   14 1
    20    9   22 1
    21   10   15 1
    22   10   16 1
    23   10   23 1
    24   12   24 1
