@<TRIPOS>MOLECULE
*****
   36    38     0     0     0
SMALL
NO_CHARGES

@<TRIPOS>ATOM
      1 C1          0.2286   -6.4474   -6.3146 C.1       1 <0>         0.0000
      2 C2          0.2608   -4.0009   -6.6043 C.ar      1 <0>         0.0000
      3 C3          0.4222   -4.9477   -4.3718 C.ar      1 <0>         0.0000
      4 C4          0.3319   -2.7240   -6.0549 C.ar      1 <0>         0.0000
      5 C5          0.4905   -3.6617   -3.8389 C.ar      1 <0>         0.0000
      6 C6          4.1293   -0.4091   -3.9976 C.2       1 <0>         0.0000
      7 C7          3.0797   -1.2492   -3.6936 C.2       1 <0>         0.0000
      8 C8          2.3822    0.4990   -4.8496 C.2       1 <0>         0.0000
      9 C9          0.3056   -5.1242   -5.7602 C.ar      1 <0>         0.0000
     10 C10         0.4457   -2.5345   -4.6702 C.ar      1 <0>         0.0000
     11 C11        -1.8668   -0.4893   -1.2373 C.3       1 <0>         0.0000
     12 C12        -0.7942    0.6165   -1.0041 C.3       1 <0>         0.0000
     13 C13        -1.4647   -1.2000   -2.5514 C.3       1 <0>         0.0000
     14 C14         0.1461    0.5545   -2.2263 C.3       1 <0>         0.0000
     15 C15         0.0368   -0.9016   -2.7094 C.3       1 <0>         0.0000
     16 C16         0.5686   -1.1151   -4.1310 C.3       1 <0>         0.0000
     17 N1          0.1643   -7.5211   -6.7632 N.1       1 <0>         0.0000
     18 N2          3.6833    0.6797   -4.7189 N.2       1 <0>         0.0000
     19 N3          1.9591   -0.6589   -4.2505 N.pl3     1 <0>         0.0000
     20 H1          0.1713   -4.1375   -7.6776 H         1 <0>         0.0000
     21 H2          0.4562   -5.8161   -3.7211 H         1 <0>         0.0000
     22 H3          0.3072   -1.8583   -6.7124 H         1 <0>         0.0000
     23 H4          0.5758   -3.5455   -2.7633 H         1 <0>         0.0000
     24 H5          5.1748   -0.5311   -3.7446 H         1 <0>         0.0000
     25 H6          3.0329   -2.1945   -3.1732 H         1 <0>         0.0000
     26 H7          1.6951    1.1644   -5.3577 H         1 <0>         0.0000
     27 H8         -1.8695   -1.2003   -0.4053 H         1 <0>         0.0000
     28 H9         -2.8782   -0.0781   -1.3009 H         1 <0>         0.0000
     29 H10        -1.2377    1.6091   -0.8864 H         1 <0>         0.0000
     30 H11        -0.2315    0.4124   -0.0876 H         1 <0>         0.0000
     31 H12        -1.6969   -2.2682   -2.5455 H         1 <0>         0.0000
     32 H13        -2.0035   -0.7618   -3.4018 H         1 <0>         0.0000
     33 H14        -0.2161    1.2234   -3.0183 H         1 <0>         0.0000
     34 H15         1.1726    0.8512   -1.9968 H         1 <0>         0.0000
     35 H16         0.6066   -1.5302   -2.0126 H         1 <0>         0.0000
     36 H17        -0.0067   -0.4606   -4.7950 H         1 <0>         0.0000
@<TRIPOS>BOND
     1    1    9 1
     2    1   17 3
     3    2    4 ar
     4    2    9 ar
     5    2   20 1
     6    3    5 ar
     7    3    9 ar
     8    3   21 1
     9    4   10 ar
    10    4   22 1
    11    5   10 ar
    12    5   23 1
    13    6    7 2
    14    6   18 1
    15    6   24 1
    16    7   19 1
    17    7   25 1
    18    8   18 2
    19    8   19 1
    20    8   26 1
    21   10   16 1
    22   11   12 1
    23   11   13 1
    24   11   27 1
    25   11   28 1
    26   12   14 1
    27   12   29 1
    28   12   30 1
    29   13   15 1
    30   13   31 1
    31   13   32 1
    32   14   15 1
    33   14   33 1
    34   14   34 1
    35   15   16 1
    36   15   35 1
    37   16   19 1
    38   16   36 1
