@<TRIPOS>MOLECULE
*****
   26    27     0     0     0
SMALL
NO_CHARGES

@<TRIPOS>ATOM
      1 C1          2.1255    3.0421    5.9808 C.ar      1 <0>         0.0000
      2 C2          1.5594   -1.3495    0.1461 C.ar      1 <0>         0.0000
      3 C3          1.4451    2.0475    6.6953 C.ar      1 <0>         0.0000
      4 C4          2.3180    2.8847    4.6059 C.ar      1 <0>         0.0000
      5 C5          0.3307   -0.7614    0.4598 C.ar      1 <0>         0.0000
      6 C6          2.4913   -1.6030    1.1584 C.ar      1 <0>         0.0000
      7 C7          0.9672    0.9092    6.0459 C.ar      1 <0>         0.0000
      8 C8          1.8415    1.7501    3.9387 C.ar      1 <0>         0.0000
      9 C9          0.0450   -0.4244    1.7863 C.ar      1 <0>         0.0000
     10 C10         2.2277   -1.2762    2.4957 C.ar      1 <0>         0.0000
     11 C11         1.1679    0.7638    4.6675 C.ar      1 <0>         0.0000
     12 C12         0.9887   -0.6800    2.7797 C.ar      1 <0>         0.0000
     13 C13         3.2227   -1.5485    3.5957 C.3       1 <0>         0.0000
     14 O1          0.6550   -0.3872    4.1003 O.3       1 <0>         0.0000
     15 H1          2.4987    3.9263    6.4899 H         1 <0>         0.0000
     16 H2          1.7908   -1.6163   -0.8817 H         1 <0>         0.0000
     17 H3          1.2875    2.1567    7.7653 H         1 <0>         0.0000
     18 H4          2.8422    3.6498    4.0387 H         1 <0>         0.0000
     19 H5         -0.4012   -0.5658   -0.3193 H         1 <0>         0.0000
     20 H6          3.4418   -2.0698    0.9095 H         1 <0>         0.0000
     21 H7          0.4410    0.1267    6.5848 H         1 <0>         0.0000
     22 H8          1.9911    1.6368    2.8702 H         1 <0>         0.0000
     23 H9         -0.8995    0.0338    2.0652 H         1 <0>         0.0000
     24 H10         3.6463   -0.6172    3.9879 H         1 <0>         0.0000
     25 H11         2.7461   -2.0592    4.4380 H         1 <0>         0.0000
     26 H12         4.0453   -2.1693    3.2317 H         1 <0>         0.0000
@<TRIPOS>BOND
     1    1    4 ar
     2    1    3 ar
     3    1   15 1
     4    2    5 ar
     5    2    6 ar
     6    2   16 1
     7    3    7 ar
     8    3   17 1
     9    4    8 ar
    10    4   18 1
    11    5    9 ar
    12    5   19 1
    13    6   10 ar
    14    6   20 1
    15    7   11 ar
    16    7   21 1
    17    8   11 ar
    18    8   22 1
    19    9   12 ar
    20    9   23 1
    21   10   12 ar
    22   10   13 1
    23   11   14 1
    24   12   14 1
    25   13   24 1
    26   13   25 1
    27   13   26 1
