@<TRIPOS>MOLECULE
*****
   20    20     0     0     0
SMALL
NO_CHARGES

@<TRIPOS>ATOM
      1 C1          1.5500   -0.2786    1.5980 C.ar      1 <0>         0.0000
      2 C2          0.3416   -0.6196    0.9781 C.ar      1 <0>         0.0000
      3 C3          1.7943   -0.6623    2.9118 C.ar      1 <0>         0.0000
      4 C4         -0.5923   -1.3763    1.7192 C.ar      1 <0>         0.0000
      5 C5          0.7893   -1.3916    3.5730 C.ar      1 <0>         0.0000
      6 C6          0.0754   -0.1639   -0.4213 C.2       1 <0>         0.0000
      7 C7          1.0400    0.7051   -2.3940 C.3       1 <0>         0.0000
      8 C8         -1.8921   -1.8855    1.1748 C.3       1 <0>         0.0000
      9 N1         -0.3432   -1.7336    2.9880 N.ar      1 <0>         0.0000
     10 O1         -1.0195   -0.1255   -0.9523 O.2       1 <0>         0.0000
     11 O2          1.2108    0.2299   -1.0396 O.3       1 <0>         0.0000
     12 Cl1         3.2976   -0.2334    3.6735 Cl        1 <0>         0.0000
     13 Cl2         0.9957   -1.8892    5.2314 Cl        1 <0>         0.0000
     14 Br1        -1.5596   -3.5461    0.1208 Br        1 <0>         0.0000
     15 H1          2.2957    0.2898    1.0550 H         1 <0>         0.0000
     16 H2          2.0405    0.9696   -2.7344 H         1 <0>         0.0000
     17 H3          0.3813    1.5760   -2.4088 H         1 <0>         0.0000
     18 H4          0.6133   -0.0832   -3.0174 H         1 <0>         0.0000
     19 H5         -2.3695   -1.2028    0.4814 H         1 <0>         0.0000
     20 H6         -2.5433   -2.1851    1.9912 H         1 <0>         0.0000
@<TRIPOS>BOND
     1    1    2 ar
     2    1    3 ar
     3    1   15 1
     4    2    4 ar
     5    2    6 1
     6    3    5 ar
     7    3   12 1
     8    4    8 1
     9    4    9 ar
    10    5    9 ar
    11    5   13 1
    12    6   10 2
    13    6   11 1
    14    7   11 1
    15    7   16 1
    16    7   17 1
    17    7   18 1
    18    8   14 1
    19    8   19 1
    20    8   20 1
