@<TRIPOS>MOLECULE
*****
   21    22     0     0     0
SMALL
NO_CHARGES

@<TRIPOS>ATOM
      1 C1         -0.4394    0.1918    0.7522 C.ar      1 <0>         0.0000
      2 C2          0.6802    1.7636    2.2597 C.ar      1 <0>         0.0000
      3 C3         -1.5226    0.0366    1.6528 C.ar      1 <0>         0.0000
      4 C4         -0.3839    1.5994    3.1220 C.ar      1 <0>         0.0000
      5 C5         -1.4681    0.7600    2.8409 C.ar      1 <0>         0.0000
      6 C6          0.6204    1.0300    1.0567 C.ar      1 <0>         0.0000
      7 C7         -2.6224   -0.8836    1.2550 C.2       1 <0>         0.0000
      8 C8         -1.8294    1.7367    4.8356 C.3       1 <0>         0.0000
      9 C9         -4.6928   -1.8362    1.8557 C.3       1 <0>         0.0000
     10 O1         -2.6410   -1.5028    0.2050 O.2       1 <0>         0.0000
     11 O2         -0.5563    2.1923    4.3497 O.3       1 <0>         0.0000
     12 O3         -2.3575    0.7989    3.8813 O.3       1 <0>         0.0000
     13 O4         -3.5974   -0.9574    2.1847 O.3       1 <0>         0.0000
     14 Br1         2.0657    1.2119   -0.1899 Br        1 <0>         0.0000
     15 H1         -0.4705   -0.3651   -0.1769 H         1 <0>         0.0000
     16 H2          1.5113    2.4180    2.4966 H         1 <0>         0.0000
     17 H3         -1.6925    1.2326    5.7971 H         1 <0>         0.0000
     18 H4         -2.5135    2.5882    4.9202 H         1 <0>         0.0000
     19 H5         -5.3747   -1.7761    2.7036 H         1 <0>         0.0000
     20 H6         -4.3328   -2.8586    1.7199 H         1 <0>         0.0000
     21 H7         -5.1850   -1.5039    0.9387 H         1 <0>         0.0000
@<TRIPOS>BOND
     1    1    3 ar
     2    1    6 ar
     3    1   15 1
     4    2    4 ar
     5    2    6 ar
     6    2   16 1
     7    3    5 ar
     8    3    7 1
     9    4    5 ar
    10    4   11 1
    11    5   12 1
    12    6   14 1
    13    7   10 2
    14    7   13 1
    15    8   11 1
    16    8   12 1
    17    8   17 1
    18    8   18 1
    19    9   13 1
    20    9   19 1
    21    9   20 1
    22    9   21 1
