@<TRIPOS>MOLECULE
*****
   18    18     0     0     0
SMALL
NO_CHARGES

@<TRIPOS>ATOM
      1 C1          4.6524   -2.1316   -0.0732 C.1       1 <0>         0.0000
      2 C2          2.3156   -1.4871   -0.1319 C.ar      1 <0>         0.0000
      3 C3          1.1144   -1.1402    0.4741 C.ar      1 <0>         0.0000
      4 C4          2.1412   -1.3535    2.6520 C.ar      1 <0>         0.0000
      5 C5          3.4558   -1.7831    0.6404 C.ar      1 <0>         0.0000
      6 C6          1.0215   -1.0556    1.8713 C.ar      1 <0>         0.0000
      7 C7          3.3393   -1.7150    2.0401 C.ar      1 <0>         0.0000
      8 C8         -0.3152   -0.6895    2.4611 C.2       1 <0>         0.0000
      9 N1          5.5296   -2.3860   -0.7956 N.1       1 <0>         0.0000
     10 N2          4.4839   -2.0279    2.9214 N.pl3     1 <0>         0.0000
     11 O1          4.3113   -1.9011    4.1377 O.3       1 <0>         0.0000
     12 O2         -1.3491   -0.8398    1.8522 O.2       1 <0>         0.0000
     13 O3          5.5308   -2.3909    2.3871 O.2       1 <0>         0.0000
     14 O4         -0.3229   -0.1796    3.7199 O.3       1 <0>         0.0000
     15 H1          2.3921   -1.5397   -1.2129 H         1 <0>         0.0000
     16 H2          0.2315   -0.9312   -0.1213 H         1 <0>         0.0000
     17 H3          2.1183   -1.3536    3.7365 H         1 <0>         0.0000
     18 H4          0.5767    0.0235    4.0269 H         1 <0>         0.0000
@<TRIPOS>BOND
     1    1    5 1
     2    1    9 3
     3    2    3 ar
     4    2    5 ar
     5    2   15 1
     6    3    6 ar
     7    3   16 1
     8    4    6 ar
     9    4    7 ar
    10    4   17 1
    11    5    7 ar
    12    6    8 1
    13    7   10 1
    14    8   12 2
    15    8   14 1
    16   10   11 1
    17   10   13 2
    18   14   18 1
