@<TRIPOS>MOLECULE
*****
   35    37     0     0     0
SMALL
NO_CHARGES

@<TRIPOS>ATOM
      1 C1          6.7867   -2.0449    3.4895 C.1       1 <0>         0.0000
      2 C2          7.9814   -7.6807    0.2270 C.ar      1 <0>         0.0000
      3 C3          0.6821   -1.5705   -1.3546 C.ar      1 <0>         0.0000
      4 C4          7.3337   -6.5681   -0.3250 C.ar      1 <0>         0.0000
      5 C5          8.4669   -7.6239    1.5376 C.ar      1 <0>         0.0000
      6 C6          0.3841   -0.2772   -0.9150 C.ar      1 <0>         0.0000
      7 C7          1.7089   -2.2797   -0.7377 C.ar      1 <0>         0.0000
      8 C8          7.1473   -5.4144    0.4319 C.ar      1 <0>         0.0000
      9 C9          8.3003   -6.4619    2.2898 C.ar      1 <0>         0.0000
     10 C10         1.1115    0.2840    0.1363 C.ar      1 <0>         0.0000
     11 C11         2.4481   -1.7136    0.3180 C.ar      1 <0>         0.0000
     12 C12         7.6139   -5.3497    1.7604 C.ar      1 <0>         0.0000
     13 C13         2.1510   -0.4083    0.7764 C.ar      1 <0>         0.0000
     14 C14         3.5149   -2.5346    0.9153 C.2       1 <0>         0.0000
     15 C15         5.3035   -3.1087    1.8714 C.2       1 <0>         0.0000
     16 C16         7.4944   -4.1639    2.6049 C.2       1 <0>         0.0000
     17 C17         6.5634   -3.1680    2.6180 C.2       1 <0>         0.0000
     18 C18         2.8779    0.2598    1.9212 C.3       1 <0>         0.0000
     19 N1          6.9856   -1.1472    4.2051 N.1       1 <0>         0.0000
     20 N2          4.6328   -2.0330    1.5611 N.2       1 <0>         0.0000
     21 N3          3.4964   -3.8554    0.8472 N.2       1 <0>         0.0000
     22 O1          4.6869   -4.2441    1.4871 O.3       1 <0>         0.0000
     23 H1          8.1186   -8.5805   -0.3666 H         1 <0>         0.0000
     24 H2          0.1238   -2.0193   -2.1715 H         1 <0>         0.0000
     25 H3          6.9766   -6.6004   -1.3506 H         1 <0>         0.0000
     26 H4          8.9825   -8.4780    1.9675 H         1 <0>         0.0000
     27 H5         -0.4122    0.2928   -1.3868 H         1 <0>         0.0000
     28 H6          1.9571   -3.2826   -1.0709 H         1 <0>         0.0000
     29 H7          6.6636   -4.5559   -0.0193 H         1 <0>         0.0000
     30 H8          8.6893   -6.4149    3.3043 H         1 <0>         0.0000
     31 H9          0.8665    1.2868    0.4775 H         1 <0>         0.0000
     32 H10         8.2892   -4.0506    3.3396 H         1 <0>         0.0000
     33 H11         2.9268   -0.3832    2.8041 H         1 <0>         0.0000
     34 H12         3.9117    0.4959    1.6575 H         1 <0>         0.0000
     35 H13         2.3686    1.1863    2.1989 H         1 <0>         0.0000
@<TRIPOS>BOND
     1    1   17 1
     2    1   19 3
     3    2    5 ar
     4    2    4 ar
     5    2   23 1
     6    3    6 ar
     7    3    7 ar
     8    3   24 1
     9    4    8 ar
    10    4   25 1
    11    5    9 ar
    12    5   26 1
    13    6   10 ar
    14    6   27 1
    15    7   11 ar
    16    7   28 1
    17    8   12 ar
    18    8   29 1
    19    9   12 ar
    20    9   30 1
    21   10   13 ar
    22   10   31 1
    23   11   13 ar
    24   11   14 1
    25   12   16 1
    26   13   18 1
    27   14   20 1
    28   14   21 2
    29   15   17 1
    30   15   20 2
    31   15   22 1
    32   16   17 2
    33   16   32 1
    34   18   33 1
    35   18   34 1
    36   18   35 1
    37   21   22 1
