@<TRIPOS>MOLECULE
*****
   34    36     0     0     0
SMALL
NO_CHARGES

@<TRIPOS>ATOM
      1 C1          6.1611   -0.4004   10.0888 C.ar      1 <0>         0.0000
      2 C2          1.2813   -0.1971    9.2113 C.ar      1 <0>         0.0000
      3 C3          0.7891    1.0623    7.2010 C.ar      1 <0>         0.0000
      4 C4          0.7745    0.8365    9.9776 C.ar      1 <0>         0.0000
      5 C5          0.3241    2.1320    7.9673 C.ar      1 <0>         0.0000
      6 C6          7.1333   -1.0966   10.8025 C.ar      1 <0>         0.0000
      7 C7          6.2416   -3.2746   10.0717 C.ar      1 <0>         0.0000
      8 C8          5.2144   -1.1346    9.3572 C.ar      1 <0>         0.0000
      9 C9          1.3161   -0.0870    7.8045 C.ar      1 <0>         0.0000
     10 C10         5.2761   -2.5571    9.3577 C.ar      1 <0>         0.0000
     11 C11         0.3150    2.0209    9.3654 C.ar      1 <0>         0.0000
     12 C12         7.1606   -2.5075   10.7833 C.ar      1 <0>         0.0000
     13 C13         3.5877   -1.8087    8.1315 C.2       1 <0>         0.0000
     14 C14         3.8989   -4.3375    8.1997 C.3       1 <0>         0.0000
     15 C15        -0.6174    4.2052    9.6539 C.3       1 <0>         0.0000
     16 N1          4.1533   -0.7028    8.5882 N.2       1 <0>         0.0000
     17 N2          1.6861   -1.1253    6.9165 N.2       1 <0>         0.0000
     18 N3          2.6090   -1.9582    7.1377 N.2       1 <0>         0.0000
     19 N4          4.2370   -2.9671    8.5481 N.pl3     1 <0>         0.0000
     20 O1         -0.1383    2.9844   10.2156 O.3       1 <0>         0.0000
     21 Br1         8.5302   -3.4070   11.7846 Br        1 <0>         0.0000
     22 H1          6.1297    0.6850   10.0971 H         1 <0>         0.0000
     23 H2          1.6280   -1.1008    9.7003 H         1 <0>         0.0000
     24 H3          0.7690    1.1128    6.1162 H         1 <0>         0.0000
     25 H4          0.7231    0.7604   11.0596 H         1 <0>         0.0000
     26 H5         -0.0447    3.0215    7.4700 H         1 <0>         0.0000
     27 H6          7.8773   -0.5589   11.3803 H         1 <0>         0.0000
     28 H7          6.2844   -4.3585   10.0750 H         1 <0>         0.0000
     29 H8          3.4662   -4.8633    9.0574 H         1 <0>         0.0000
     30 H9          3.1752   -4.3160    7.3852 H         1 <0>         0.0000
     31 H10         4.7981   -4.8669    7.8713 H         1 <0>         0.0000
     32 H11        -0.9108    4.8264   10.5008 H         1 <0>         0.0000
     33 H12        -1.4879    4.0317    9.0102 H         1 <0>         0.0000
     34 H13         0.1679    4.7141    9.0825 H         1 <0>         0.0000
@<TRIPOS>BOND
     1    1    6 ar
     2    1    8 ar
     3    1   22 1
     4    2    4 ar
     5    2    9 ar
     6    2   23 1
     7    3    5 ar
     8    3    9 ar
     9    3   24 1
    10    4   11 ar
    11    4   25 1
    12    5   11 ar
    13    5   26 1
    14    6   12 ar
    15    6   27 1
    16    7   10 ar
    17    7   12 ar
    18    7   28 1
    19    8   10 ar
    20    8   16 1
    21    9   17 1
    22   10   19 1
    23   11   20 1
    24   12   21 1
    25   13   16 2
    26   13   18 1
    27   13   19 1
    28   14   19 1
    29   14   29 1
    30   14   30 1
    31   14   31 1
    32   15   20 1
    33   15   32 1
    34   15   33 1
    35   15   34 1
    36   17   18 2
