@<TRIPOS>MOLECULE
*****
   35    37     0     0     0
SMALL
NO_CHARGES

@<TRIPOS>ATOM
      1 C1          7.7783   -1.6560    3.6316 C.1       1 <0>         0.0000
      2 C2          7.8262   -7.4821    0.4925 C.ar      1 <0>         0.0000
      3 C3          1.8976    0.8864    1.6986 C.ar      1 <0>         0.0000
      4 C4          7.0359   -6.3859    0.1242 C.ar      1 <0>         0.0000
      5 C5          8.7177   -7.3684    1.5643 C.ar      1 <0>         0.0000
      6 C6          0.6057    0.4053    1.4698 C.ar      1 <0>         0.0000
      7 C7          2.9284   -0.0157    1.9486 C.ar      1 <0>         0.0000
      8 C8          7.1139   -5.1911    0.8348 C.ar      1 <0>         0.0000
      9 C9          8.8125   -6.1661    2.2640 C.ar      1 <0>         0.0000
     10 C10         0.3626   -0.9699    1.4951 C.ar      1 <0>         0.0000
     11 C11         2.6876   -1.4030    1.9745 C.ar      1 <0>         0.0000
     12 C12         7.9935   -5.0683    1.9294 C.ar      1 <0>         0.0000
     13 C13         1.3808   -1.9009    1.7450 C.ar      1 <0>         0.0000
     14 C14         3.8465   -2.2672    2.2484 C.2       1 <0>         0.0000
     15 C15         5.8510   -2.7933    2.6477 C.2       1 <0>         0.0000
     16 C16         8.1611   -3.8373    2.6979 C.2       1 <0>         0.0000
     17 C17         7.2852   -2.8249    2.9537 C.2       1 <0>         0.0000
     18 C18         1.0402   -3.3708    1.7585 C.3       1 <0>         0.0000
     19 N1          8.2003   -0.7209    4.1839 N.1       1 <0>         0.0000
     20 N2          5.1154   -1.7379    2.4477 N.2       1 <0>         0.0000
     21 N3          3.8137   -3.5871    2.3315 N.2       1 <0>         0.0000
     22 O1          5.1480   -3.9437    2.6097 O.3       1 <0>         0.0000
     23 H1          7.7570   -8.4139   -0.0625 H         1 <0>         0.0000
     24 H2          2.1010    1.9535    1.6837 H         1 <0>         0.0000
     25 H3          6.3600   -6.4632   -0.7229 H         1 <0>         0.0000
     26 H4          9.3439   -8.2100    1.8467 H         1 <0>         0.0000
     27 H5         -0.2107    1.0956    1.2732 H         1 <0>         0.0000
     28 H6          3.9369    0.3389    2.1303 H         1 <0>         0.0000
     29 H7          6.5119   -4.3463    0.5205 H         1 <0>         0.0000
     30 H8          9.5147   -6.0754    3.0895 H         1 <0>         0.0000
     31 H9         -0.6456   -1.3358    1.3169 H         1 <0>         0.0000
     32 H10         9.1531   -3.6997    3.1237 H         1 <0>         0.0000
     33 H11         1.6187   -3.9248    1.0132 H         1 <0>         0.0000
     34 H12         1.2741   -3.8286    2.7240 H         1 <0>         0.0000
     35 H13        -0.0235   -3.5149    1.5521 H         1 <0>         0.0000
@<TRIPOS>BOND
     1    1   17 1
     2    1   19 3
     3    2    5 ar
     4    2    4 ar
     5    2   23 1
     6    3    6 ar
     7    3    7 ar
     8    3   24 1
     9    4    8 ar
    10    4   25 1
    11    5    9 ar
    12    5   26 1
    13    6   10 ar
    14    6   27 1
    15    7   11 ar
    16    7   28 1
    17    8   12 ar
    18    8   29 1
    19    9   12 ar
    20    9   30 1
    21   10   13 ar
    22   10   31 1
    23   11   13 ar
    24   11   14 1
    25   12   16 1
    26   13   18 1
    27   14   20 1
    28   14   21 2
    29   15   17 1
    30   15   20 2
    31   15   22 1
    32   16   17 2
    33   16   32 1
    34   18   33 1
    35   18   34 1
    36   18   35 1
    37   21   22 1
