@<TRIPOS>MOLECULE
*****
   35    37     0     0     0
SMALL
NO_CHARGES

@<TRIPOS>ATOM
      1 C1          8.3936   -2.0704    2.9555 C.1       1 <0>         0.0000
      2 C2          8.1170    1.4326   -2.6790 C.ar      1 <0>         0.0000
      3 C3          1.4971    0.2722   -0.1670 C.ar      1 <0>         0.0000
      4 C4          6.9667    1.2188   -1.9105 C.ar      1 <0>         0.0000
      5 C5          9.3390    0.8908   -2.2640 C.ar      1 <0>         0.0000
      6 C6          0.3444    0.2078    0.6205 C.ar      1 <0>         0.0000
      7 C7          2.7166   -0.1232    0.3759 C.ar      1 <0>         0.0000
      8 C8          7.0203    0.4686   -0.7376 C.ar      1 <0>         0.0000
      9 C9          9.4005    0.1460   -1.0901 C.ar      1 <0>         0.0000
     10 C10         0.4289   -0.2527    1.9361 C.ar      1 <0>         0.0000
     11 C11         2.8072   -0.5893    1.7013 C.ar      1 <0>         0.0000
     12 C12         8.2456   -0.0843   -0.3020 C.ar      1 <0>         0.0000
     13 C13         1.6435   -0.6607    2.5066 C.ar      1 <0>         0.0000
     14 C14         4.1430   -0.9828    2.1774 C.2       1 <0>         0.0000
     15 C15         6.2433   -1.2486    2.1531 C.2       1 <0>         0.0000
     16 C16         8.4607   -0.8670    0.9052 C.2       1 <0>         0.0000
     17 C17         7.6834   -1.3459    1.9294 C.2       1 <0>         0.0000
     18 C18         1.6522   -1.1490    3.9343 C.3       1 <0>         0.0000
     19 N1          8.9997   -2.6496    3.7646 N.1       1 <0>         0.0000
     20 N2          5.2803   -0.7682    1.4137 N.2       1 <0>         0.0000
     21 N3          4.3974   -1.5702    3.3335 N.2       1 <0>         0.0000
     22 O1          5.7876   -1.7503    3.3247 O.3       1 <0>         0.0000
     23 H1          8.0623    2.0174   -3.5935 H         1 <0>         0.0000
     24 H2          1.4462    0.6252   -1.1934 H         1 <0>         0.0000
     25 H3          6.0176    1.6410   -2.2303 H         1 <0>         0.0000
     26 H4         10.2381    1.0516   -2.8521 H         1 <0>         0.0000
     27 H5         -0.6164    0.5135    0.2144 H         1 <0>         0.0000
     28 H6          3.6187   -0.0833   -0.2243 H         1 <0>         0.0000
     29 H7          6.1242    0.3014   -0.1569 H         1 <0>         0.0000
     30 H8         10.3539   -0.2673   -0.7698 H         1 <0>         0.0000
     31 H9         -0.4721   -0.2988    2.5426 H         1 <0>         0.0000
     32 H10         9.5072   -1.1343    1.0346 H         1 <0>         0.0000
     33 H11         1.9705   -2.1936    3.9982 H         1 <0>         0.0000
     34 H12         2.3547   -0.5808    4.5508 H         1 <0>         0.0000
     35 H13         0.6537   -1.0612    4.3702 H         1 <0>         0.0000
@<TRIPOS>BOND
     1    1   17 1
     2    1   19 3
     3    2    5 ar
     4    2    4 ar
     5    2   23 1
     6    3    6 ar
     7    3    7 ar
     8    3   24 1
     9    4    8 ar
    10    4   25 1
    11    5    9 ar
    12    5   26 1
    13    6   10 ar
    14    6   27 1
    15    7   11 ar
    16    7   28 1
    17    8   12 ar
    18    8   29 1
    19    9   12 ar
    20    9   30 1
    21   10   13 ar
    22   10   31 1
    23   11   13 ar
    24   11   14 1
    25   12   16 1
    26   13   18 1
    27   14   20 1
    28   14   21 2
    29   15   17 1
    30   15   20 2
    31   15   22 1
    32   16   17 2
    33   16   32 1
    34   18   33 1
    35   18   34 1
    36   18   35 1
    37   21   22 1
