@<TRIPOS>MOLECULE
*****
   28    30     0     0     0
SMALL
NO_CHARGES

@<TRIPOS>ATOM
      1 C1          2.2628   -1.5736    1.4433 C.ar      1 <0>         0.0000
      2 C2          0.4428    2.2330    2.4859 C.ar      1 <0>         0.0000
      3 C3          0.5409    1.5017    1.2848 C.ar      1 <0>         0.0000
      4 C4          3.0157   -2.1127    2.4848 C.ar      1 <0>         0.0000
      5 C5         -1.0475   -0.1793    2.1063 C.ar      1 <0>         0.0000
      6 C6          1.3667   -3.8863    2.7428 C.ar      1 <0>         0.0000
      7 C7          1.0701   -2.1768    1.0221 C.ar      1 <0>         0.0000
      8 C8         -0.3867    1.7249    3.4674 C.ar      1 <0>         0.0000
      9 C9         -1.1137    0.5486    3.2791 C.ar      1 <0>         0.0000
     10 C10        -0.1824    0.3255    1.1170 C.ar      1 <0>         0.0000
     11 C11         0.6518   -3.3289    1.6887 C.ar      1 <0>         0.0000
     12 C12         2.5555   -3.2654    3.1276 C.ar      1 <0>         0.0000
     13 C13         0.3068   -1.6540   -0.1588 C.2       1 <0>         0.0000
     14 C14        -1.5902    1.3404    5.3299 C.3       1 <0>         0.0000
     15 O1          0.0721   -2.3063   -1.1454 O.2       1 <0>         0.0000
     16 O2         -0.6518    2.2411    4.7168 O.3       1 <0>         0.0000
     17 O3         -1.8644    0.2775    4.3966 O.3       1 <0>         0.0000
     18 O4         -0.0789   -0.3350   -0.1118 O.3       1 <0>         0.0000
     19 F1         -0.5157   -3.9070    1.3354 F         1 <0>         0.0000
     20 Cl1         3.4811   -3.9452    4.4481 Cl        1 <0>         0.0000
     21 H1          2.6102   -0.6744    0.9451 H         1 <0>         0.0000
     22 H2          0.9962    3.1544    2.6342 H         1 <0>         0.0000
     23 H3          1.1769    1.8492    0.4771 H         1 <0>         0.0000
     24 H4          3.9432   -1.6456    2.7979 H         1 <0>         0.0000
     25 H5         -1.6305   -1.0809    1.9520 H         1 <0>         0.0000
     26 H6          0.9950   -4.7743    3.2422 H         1 <0>         0.0000
     27 H7         -1.1475    0.9168    6.2375 H         1 <0>         0.0000
     28 H8         -2.5198    1.8766    5.5477 H         1 <0>         0.0000
@<TRIPOS>BOND
     1    1    4 ar
     2    1    7 ar
     3    1   21 1
     4    2    3 ar
     5    2    8 ar
     6    2   22 1
     7    3   10 ar
     8    3   23 1
     9    4   12 ar
    10    4   24 1
    11    5    9 ar
    12    5   10 ar
    13    5   25 1
    14    6   11 ar
    15    6   12 ar
    16    6   26 1
    17    7   11 ar
    18    7   13 1
    19    8    9 ar
    20    8   16 1
    21    9   17 1
    22   10   18 1
    23   11   19 1
    24   12   20 1
    25   13   15 2
    26   13   18 1
    27   14   16 1
    28   14   17 1
    29   14   27 1
    30   14   28 1
