@<TRIPOS>MOLECULE
*****
   18    18     0     0     0
SMALL
NO_CHARGES

@<TRIPOS>ATOM
      1 C1          1.3914   -0.8131   -1.3705 C.1       1 <0>         0.0000
      2 C2          0.8830    0.2039    2.1145 C.2       1 <0>         0.0000
      3 C3          0.8291   -0.7884    4.1524 C.2       1 <0>         0.0000
      4 C4         -0.7372    0.3256    0.1972 C.3       1 <0>         0.0000
      5 C5          0.7286    0.3970    0.6379 C.3       1 <0>         0.0000
      6 N1          1.2352   -0.9749   -2.5168 N.1       1 <0>         0.0000
      7 N2          1.2490    1.1442    2.9399 N.2       1 <0>         0.0000
      8 N3          0.6107   -0.9753    2.7762 N.am      1 <0>         0.0000
      9 N4          1.2032    0.5449    4.1822 N.am      1 <0>         0.0000
     10 N5          1.5249   -0.6687   -0.0357 N.3       1 <0>         0.0000
     11 O1          0.7167   -1.5928    5.0638 O.2       1 <0>         0.0000
     12 H1         -1.1674   -0.6554    0.4183 H         1 <0>         0.0000
     13 H2         -1.3100    1.0894    0.7283 H         1 <0>         0.0000
     14 H3         -0.8264    0.5074   -0.8766 H         1 <0>         0.0000
     15 H4          1.1321    1.3895    0.4076 H         1 <0>         0.0000
     16 H5          0.3703   -1.8669    2.3638 H         1 <0>         0.0000
     17 H6          1.4647    1.0614    5.0102 H         1 <0>         0.0000
     18 H7          2.4967   -0.6916    0.2644 H         1 <0>         0.0000
@<TRIPOS>BOND
     1    1    6 3
     2    1   10 1
     3    2    5 1
     4    2    7 2
     5    2    8 1
     6    3    8 am
     7    3    9 am
     8    3   11 2
     9    4    5 1
    10    4   12 1
    11    4   13 1
    12    4   14 1
    13    5   10 1
    14    5   15 1
    15    7    9 1
    16    8   16 1
    17    9   17 1
    18   10   18 1
