@<TRIPOS>MOLECULE
*****
   32    33     0     0     0
SMALL
NO_CHARGES

@<TRIPOS>ATOM
      1 C1          0.3418    3.0520   -0.2761 C.ar      1 <0>         0.0000
      2 C2          2.0690    1.8426    0.8680 C.ar      1 <0>         0.0000
      3 C3          1.1520    4.1876   -0.3304 C.ar      1 <0>         0.0000
      4 C4          2.8944    2.9685    0.8252 C.ar      1 <0>         0.0000
      5 C5         -1.1681    0.4048    6.1279 C.2       1 <0>         0.0000
      6 C6         -0.5072    0.9667    5.0561 C.2       1 <0>         0.0000
      7 C7         -2.5486    0.3556    4.4864 C.2       1 <0>         0.0000
      8 C8          0.7782    1.8604    0.3201 C.ar      1 <0>         0.0000
      9 C9          2.4357    4.1475    0.2235 C.ar      1 <0>         0.0000
     10 C10         0.4700   -0.5477   -0.4029 C.3       1 <0>         0.0000
     11 C11        -0.4363    0.2241    1.8319 C.3       1 <0>         0.0000
     12 C12        -1.1382    1.3298    2.6274 C.3       1 <0>         0.0000
     13 C13        -0.1223    0.6368    0.3808 C.3       1 <0>         0.0000
     14 N1         -2.4436    0.0267    5.7619 N.2       1 <0>         0.0000
     15 N2         -1.4064    0.9390    4.0060 N.pl3     1 <0>         0.0000
     16 O1          3.1975    5.2895    0.1486 O.3       1 <0>         0.0000
     17 H1         -0.6555    3.0976   -0.7087 H         1 <0>         0.0000
     18 H2          2.4470    0.9382    1.3389 H         1 <0>         0.0000
     19 H3          0.8059    5.1065   -0.7945 H         1 <0>         0.0000
     20 H4          3.8933    2.9282    1.2576 H         1 <0>         0.0000
     21 H5         -0.8019    0.2605    7.1365 H         1 <0>         0.0000
     22 H6          0.4843    1.3836    4.9449 H         1 <0>         0.0000
     23 H7         -3.4222    0.2083    3.8628 H         1 <0>         0.0000
     24 H8          1.4124   -0.8845    0.0420 H         1 <0>         0.0000
     25 H9          0.6735   -0.2649   -1.4402 H         1 <0>         0.0000
     26 H10        -0.2206   -1.3982   -0.4060 H         1 <0>         0.0000
     27 H11        -1.0711   -0.6697    1.8290 H         1 <0>         0.0000
     28 H12         0.4892   -0.0538    2.3492 H         1 <0>         0.0000
     29 H13        -2.0940    1.5859    2.1590 H         1 <0>         0.0000
     30 H14        -0.5318    2.2391    2.6363 H         1 <0>         0.0000
     31 H15        -1.0722    0.9075   -0.0986 H         1 <0>         0.0000
     32 H16         4.0595    5.1240    0.5620 H         1 <0>         0.0000
@<TRIPOS>BOND
     1    1    3 ar
     2    1    8 ar
     3    1   17 1
     4    2    4 ar
     5    2    8 ar
     6    2   18 1
     7    3    9 ar
     8    3   19 1
     9    4    9 ar
    10    4   20 1
    11    5    6 2
    12    5   14 1
    13    5   21 1
    14    6   15 1
    15    6   22 1
    16    7   14 2
    17    7   15 1
    18    7   23 1
    19    8   13 1
    20    9   16 1
    21   10   13 1
    22   10   24 1
    23   10   25 1
    24   10   26 1
    25   11   12 1
    26   11   13 1
    27   11   27 1
    28   11   28 1
    29   12   15 1
    30   12   29 1
    31   12   30 1
    32   13   31 1
    33   16   32 1
