@<TRIPOS>MOLECULE
*****
   20    20     0     0     0
SMALL
NO_CHARGES

@<TRIPOS>ATOM
      1 C1          2.1502    0.0255    2.4819 C.ar      1 <0>         0.0000
      2 C2          0.7886   -0.2120    2.2571 C.ar      1 <0>         0.0000
      3 C3          2.8245   -0.6623    3.4844 C.ar      1 <0>         0.0000
      4 C4          0.1335   -1.1443    3.0911 C.ar      1 <0>         0.0000
      5 C5          2.0879   -1.5898    4.2437 C.ar      1 <0>         0.0000
      6 C6          0.0871    0.5049    1.1477 C.2       1 <0>         0.0000
      7 C7          0.1974    2.3135   -0.3670 C.3       1 <0>         0.0000
      8 C8         -1.3317   -1.4514    3.0306 C.3       1 <0>         0.0000
      9 N1          0.8001   -1.8039    4.0505 N.ar      1 <0>         0.0000
     10 O1         -0.9798    0.1770    0.6616 O.2       1 <0>         0.0000
     11 O2          0.7969    1.5724    0.7196 O.3       1 <0>         0.0000
     12 Cl1         4.5157   -0.3607    3.7546 Cl        1 <0>         0.0000
     13 Cl2         2.8567   -2.5201    5.5023 Cl        1 <0>         0.0000
     14 Br1        -2.3418   -0.0405    4.0150 Br        1 <0>         0.0000
     15 H1          2.6822    0.7443    1.8702 H         1 <0>         0.0000
     16 H2          0.8850    3.1338   -0.5695 H         1 <0>         0.0000
     17 H3         -0.7821    2.6921   -0.0682 H         1 <0>         0.0000
     18 H4          0.0866    1.6735   -1.2450 H         1 <0>         0.0000
     19 H5         -1.5378   -2.3780    3.5590 H         1 <0>         0.0000
     20 H6         -1.7371   -1.4379    2.0255 H         1 <0>         0.0000
@<TRIPOS>BOND
     1    1    2 ar
     2    1    3 ar
     3    1   15 1
     4    2    4 ar
     5    2    6 1
     6    3    5 ar
     7    3   12 1
     8    4    8 1
     9    4    9 ar
    10    5    9 ar
    11    5   13 1
    12    6   10 2
    13    6   11 1
    14    7   11 1
    15    7   16 1
    16    7   17 1
    17    7   18 1
    18    8   14 1
    19    8   19 1
    20    8   20 1
