@<TRIPOS>MOLECULE
*****
   24    24     0     0     0
SMALL
NO_CHARGES

@<TRIPOS>ATOM
      1 C1          1.5531   -0.7817   -0.4984 C.ar      1 <0>         0.0000
      2 C2          0.4447   -0.3264    0.2164 C.ar      1 <0>         0.0000
      3 C3          2.5056   -1.6057    1.5611 C.ar      1 <0>         0.0000
      4 C4          2.5890   -1.4277    0.1774 C.ar      1 <0>         0.0000
      5 C5          0.3592   -0.5005    1.6008 C.ar      1 <0>         0.0000
      6 C6          1.4011   -1.1546    2.2905 C.ar      1 <0>         0.0000
      7 C7          0.3154   -2.3704    4.2614 C.2       1 <0>         0.0000
      8 C8          1.3905   -1.3920    3.7849 C.3       1 <0>         0.0000
      9 C9          3.8165   -1.8764   -0.5753 C.3       1 <0>         0.0000
     10 C10        -0.8880   -0.0268    2.3142 C.3       1 <0>         0.0000
     11 O1         -0.5650   -2.8277    3.5723 O.2       1 <0>         0.0000
     12 O2          0.3953   -2.7056    5.5798 O.3       1 <0>         0.0000
     13 F1          3.4804   -2.3237   -1.8319 F         1 <0>         0.0000
     14 F2          4.4457   -2.9098    0.0799 F         1 <0>         0.0000
     15 F3         -1.6387    0.7886    1.5049 F         1 <0>         0.0000
     16 F4         -0.5569    0.7257    3.4320 F         1 <0>         0.0000
     17 H1          1.6015   -0.6462   -1.5745 H         1 <0>         0.0000
     18 H2         -0.3652    0.1696   -0.3064 H         1 <0>         0.0000
     19 H3          3.3121   -2.1190    2.0764 H         1 <0>         0.0000
     20 H4          1.2388   -0.4526    4.3266 H         1 <0>         0.0000
     21 H5          2.3669   -1.7803    4.0943 H         1 <0>         0.0000
     22 H6          4.5593   -1.0827   -0.7069 H         1 <0>         0.0000
     23 H7         -1.5265   -0.8446    2.6513 H         1 <0>         0.0000
     24 H8          1.1414   -2.2467    6.0025 H         1 <0>         0.0000
@<TRIPOS>BOND
     1    1    2 ar
     2    1    4 ar
     3    1   17 1
     4    2    5 ar
     5    2   18 1
     6    3    4 ar
     7    3    6 ar
     8    3   19 1
     9    4    9 1
    10    5    6 ar
    11    5   10 1
    12    6    8 1
    13    7    8 1
    14    7   11 2
    15    7   12 1
    16    8   20 1
    17    8   21 1
    18    9   13 1
    19    9   14 1
    20    9   22 1
    21   10   15 1
    22   10   16 1
    23   10   23 1
    24   12   24 1
