@<TRIPOS>MOLECULE
*****
   39    41     0     0     0
SMALL
NO_CHARGES

@<TRIPOS>ATOM
      1 C1          0.1589    3.4081    0.4350 C.ar      1 <0>         0.0000
      2 C2          0.5992    3.0935   -1.9150 C.ar      1 <0>         0.0000
      3 C3          0.8931    4.5964    0.4256 C.ar      1 <0>         0.0000
      4 C4          1.3407    4.2791   -1.9442 C.ar      1 <0>         0.0000
      5 C5         -0.1543   -0.2897   -4.7295 C.2       1 <0>         0.0000
      6 C6         -0.2824   -1.6215   -3.1080 C.2       1 <0>         0.0000
      7 C7          0.0056    2.6367   -0.7281 C.ar      1 <0>         0.0000
      8 C8          1.4758    5.0081   -0.7687 C.ar      1 <0>         0.0000
      9 C9          2.1300    0.6889    1.1939 C.3       1 <0>         0.0000
     10 C10         1.7622   -0.7467    1.5251 C.3       1 <0>         0.0000
     11 C11         0.7087    0.2382    1.0373 C.3       1 <0>         0.0000
     12 C12        -1.1132   -0.1272    2.5840 C.3       1 <0>         0.0000
     13 C13        -0.7845    1.3426   -0.6965 C.3       1 <0>         0.0000
     14 C14         1.0694   -0.2413   -1.4492 C.3       1 <0>         0.0000
     15 C15         0.0419    0.0865   -0.3370 C.3       1 <0>         0.0000
     16 N1         -0.6725   -1.5004   -4.3702 N.2       1 <0>         0.0000
     17 N2          0.5280    0.3330   -3.7755 N.2       1 <0>         0.0000
     18 N3          0.4374   -0.5391   -2.7268 N.pl3     1 <0>         0.0000
     19 O1         -0.9108   -0.9981   -0.2788 O.3       1 <0>         0.0000
     20 O2         -0.1281    0.7581    2.0453 O.3       1 <0>         0.0000
     21 F1          2.1952    6.1633   -0.7866 F         1 <0>         0.0000
     22 H1         -0.2883    3.0646    1.3620 H         1 <0>         0.0000
     23 H2          0.4926    2.5131   -2.8264 H         1 <0>         0.0000
     24 H3          1.0146    5.1981    1.3215 H         1 <0>         0.0000
     25 H4          1.8026    4.6372   -2.8595 H         1 <0>         0.0000
     26 H5         -0.2762    0.1438   -5.7139 H         1 <0>         0.0000
     27 H6         -0.5033   -2.4453   -2.4454 H         1 <0>         0.0000
     28 H7          2.3134    1.3625    2.0235 H         1 <0>         0.0000
     29 H8          2.7282    0.8841    0.3115 H         1 <0>         0.0000
     30 H9          2.1227   -1.5379    0.8737 H         1 <0>         0.0000
     31 H10         1.7169   -1.0167    2.5754 H         1 <0>         0.0000
     32 H11        -1.4858    0.3521    3.4923 H         1 <0>         0.0000
     33 H12        -0.6710   -1.0970    2.8503 H         1 <0>         0.0000
     34 H13        -1.9388   -0.2894    1.8850 H         1 <0>         0.0000
     35 H14        -1.2548    1.1586   -1.6662 H         1 <0>         0.0000
     36 H15        -1.5880    1.4134    0.0384 H         1 <0>         0.0000
     37 H16         1.7380    0.5985   -1.6286 H         1 <0>         0.0000
     38 H17         1.6728   -1.1067   -1.1625 H         1 <0>         0.0000
     39 H18        -0.5063   -1.7076    0.2479 H         1 <0>         0.0000
@<TRIPOS>BOND
     1    1    3 ar
     2    1    7 ar
     3    1   22 1
     4    2    4 ar
     5    2    7 ar
     6    2   23 1
     7    3    8 ar
     8    3   24 1
     9    4    8 ar
    10    4   25 1
    11    5   16 1
    12    5   17 2
    13    5   26 1
    14    6   16 2
    15    6   18 1
    16    6   27 1
    17    7   13 1
    18    8   21 1
    19    9   10 1
    20    9   11 1
    21    9   28 1
    22    9   29 1
    23   10   11 1
    24   10   30 1
    25   10   31 1
    26   11   15 1
    27   11   20 1
    28   12   20 1
    29   12   32 1
    30   12   33 1
    31   12   34 1
    32   13   15 1
    33   13   35 1
    34   13   36 1
    35   14   15 1
    36   14   18 1
    37   14   37 1
    38   14   38 1
    39   15   19 1
    40   17   18 1
    41   19   39 1
