@<TRIPOS>MOLECULE
*****
   35    37     0     0     0
SMALL
NO_CHARGES

@<TRIPOS>ATOM
      1 C1          7.8432   -3.9964    3.3223 C.1       1 <0>         0.0000
      2 C2          8.2857    2.5705    2.4590 C.ar      1 <0>         0.0000
      3 C3          0.0725   -1.9078    2.3205 C.ar      1 <0>         0.0000
      4 C4          7.0477    1.9197    2.4003 C.ar      1 <0>         0.0000
      5 C5          9.4478    1.8298    2.7045 C.ar      1 <0>         0.0000
      6 C6         -0.0529   -0.7289    1.5798 C.ar      1 <0>         0.0000
      7 C7          1.3397   -2.4346    2.5556 C.ar      1 <0>         0.0000
      8 C8          6.9567    0.5412    2.5803 C.ar      1 <0>         0.0000
      9 C9          9.3633    0.4529    2.8886 C.ar      1 <0>         0.0000
     10 C10         1.0885   -0.0984    1.0814 C.ar      1 <0>         0.0000
     11 C11         2.4929   -1.7969    2.0607 C.ar      1 <0>         0.0000
     12 C12         8.1191   -0.2222    2.8276 C.ar      1 <0>         0.0000
     13 C13         2.3765   -0.6077    1.3050 C.ar      1 <0>         0.0000
     14 C14         3.7907   -2.4319    2.3516 C.2       1 <0>         0.0000
     15 C15         5.8428   -2.7173    2.7747 C.2       1 <0>         0.0000
     16 C16         8.1757   -1.6596    3.0406 C.2       1 <0>         0.0000
     17 C17         7.2799   -2.6991    3.0348 C.2       1 <0>         0.0000
     18 C18         3.5604    0.1301    0.7222 C.3       1 <0>         0.0000
     19 N1          8.3338   -5.0263    3.5590 N.1       1 <0>         0.0000
     20 N2          4.9960   -1.7649    2.4755 N.2       1 <0>         0.0000
     21 N3          3.8892   -3.7332    2.5569 N.2       1 <0>         0.0000
     22 O1          5.2439   -3.9287    2.8444 O.3       1 <0>         0.0000
     23 H1          8.3449    3.6463    2.3162 H         1 <0>         0.0000
     24 H2         -0.8070   -2.4098    2.7138 H         1 <0>         0.0000
     25 H3          6.1441    2.4938    2.2122 H         1 <0>         0.0000
     26 H4         10.4133    2.3253    2.7539 H         1 <0>         0.0000
     27 H5         -1.0344   -0.3031    1.3876 H         1 <0>         0.0000
     28 H6          1.4542   -3.3464    3.1331 H         1 <0>         0.0000
     29 H7          5.9973    0.0468    2.5314 H         1 <0>         0.0000
     30 H8         10.2691   -0.1168    3.0820 H         1 <0>         0.0000
     31 H9          0.9816    0.8119    0.4961 H         1 <0>         0.0000
     32 H10         9.1859   -1.9993    3.2585 H         1 <0>         0.0000
     33 H11         4.0863    0.7003    1.4940 H         1 <0>         0.0000
     34 H12         4.2929   -0.5454    0.2752 H         1 <0>         0.0000
     35 H13         3.2257    0.8333   -0.0450 H         1 <0>         0.0000
@<TRIPOS>BOND
     1    1   17 1
     2    1   19 3
     3    2    5 ar
     4    2    4 ar
     5    2   23 1
     6    3    6 ar
     7    3    7 ar
     8    3   24 1
     9    4    8 ar
    10    4   25 1
    11    5    9 ar
    12    5   26 1
    13    6   10 ar
    14    6   27 1
    15    7   11 ar
    16    7   28 1
    17    8   12 ar
    18    8   29 1
    19    9   12 ar
    20    9   30 1
    21   10   13 ar
    22   10   31 1
    23   11   13 ar
    24   11   14 1
    25   12   16 1
    26   13   18 1
    27   14   20 1
    28   14   21 2
    29   15   17 1
    30   15   20 2
    31   15   22 1
    32   16   17 2
    33   16   32 1
    34   18   33 1
    35   18   34 1
    36   18   35 1
    37   21   22 1
