@<TRIPOS>MOLECULE
*****
   18    19     0     0     0
SMALL
NO_CHARGES

@<TRIPOS>ATOM
      1 C1          0.5648   -0.9740   -1.8459 C.ar      1 <0>         0.0000
      2 C2          0.1816   -0.9209   -0.5069 C.ar      1 <0>         0.0000
      3 C3          0.7989   -2.2034   -2.4929 C.ar      1 <0>         0.0000
      4 C4          0.0096   -2.0937    0.2652 C.ar      1 <0>         0.0000
      5 C5          0.6271   -3.3379   -1.7269 C.ar      1 <0>         0.0000
      6 C6          0.2451   -3.2988   -0.3903 C.ar      1 <0>         0.0000
      7 C7         -0.3975   -2.0622    1.6911 C.2       1 <0>         0.0000
      8 C8          0.4990   -5.4286   -0.9774 C.3       1 <0>         0.0000
      9 O1         -0.5582   -3.0401    2.3946 O.2       1 <0>         0.0000
     10 O2          0.7885   -4.6605   -2.1050 O.3       1 <0>         0.0000
     11 O3          0.1621   -4.5883    0.0860 O.3       1 <0>         0.0000
     12 O4         -0.5797   -0.7923    2.1509 O.3       1 <0>         0.0000
     13 F1          1.5623   -6.1881   -0.6475 F         1 <0>         0.0000
     14 F2         -0.5179   -6.2732   -1.2395 F         1 <0>         0.0000
     15 H1          0.6862   -0.0514   -2.4046 H         1 <0>         0.0000
     16 H2          0.0068    0.0361   -0.0296 H         1 <0>         0.0000
     17 H3          1.0976   -2.2612   -3.5344 H         1 <0>         0.0000
     18 H4         -0.8424   -0.8843    3.0867 H         1 <0>         0.0000
@<TRIPOS>BOND
     1    1    2 ar
     2    1    3 ar
     3    1   15 1
     4    2    4 ar
     5    2   16 1
     6    3    5 ar
     7    3   17 1
     8    4    6 ar
     9    4    7 1
    10    5    6 ar
    11    5   10 1
    12    6   11 1
    13    7    9 2
    14    7   12 1
    15    8   10 1
    16    8   11 1
    17    8   13 1
    18    8   14 1
    19   12   18 1
