@<TRIPOS>MOLECULE
*****
   39    41     0     0     0
SMALL
NO_CHARGES

@<TRIPOS>ATOM
      1 C1         -1.1603    2.0250   -2.7373 C.ar      1 <0>         0.0000
      2 C2         -2.6532    1.0845   -1.0990 C.ar      1 <0>         0.0000
      3 C3         -2.1436    1.9072   -3.7231 C.ar      1 <0>         0.0000
      4 C4         -3.6535    0.9625   -2.0653 C.ar      1 <0>         0.0000
      5 C5         -0.7038   -1.3545   -3.6122 C.2       1 <0>         0.0000
      6 C6          1.0639   -0.2190   -3.5163 C.2       1 <0>         0.0000
      7 C7         -1.3883    1.6028   -1.4213 C.ar      1 <0>         0.0000
      8 C8         -3.3745    1.3707   -3.3658 C.ar      1 <0>         0.0000
      9 C9          1.5432   -0.5500    2.2231 C.3       1 <0>         0.0000
     10 C10         0.5805    0.5313    2.6864 C.3       1 <0>         0.0000
     11 C11         1.2110    0.6104    1.3228 C.3       1 <0>         0.0000
     12 C12         2.1415    2.8296    1.6343 C.3       1 <0>         0.0000
     13 C13        -0.3090    1.7009   -0.3672 C.3       1 <0>         0.0000
     14 C14         1.3232   -0.2252   -0.9852 C.3       1 <0>         0.0000
     15 C15         0.3560    0.3623    0.0684 C.3       1 <0>         0.0000
     16 N1          0.2045   -0.7136   -4.4000 N.2       1 <0>         0.0000
     17 N2         -0.4474   -1.2917   -2.3088 N.2       1 <0>         0.0000
     18 N3          0.6943   -0.5476   -2.2596 N.pl3     1 <0>         0.0000
     19 O1         -0.6305   -0.6007    0.4226 O.3       1 <0>         0.0000
     20 O2          2.2622    1.5251    1.0699 O.3       1 <0>         0.0000
     21 F1         -4.3406    1.2466   -4.3161 F         1 <0>         0.0000
     22 H1         -0.1950    2.4457   -3.0075 H         1 <0>         0.0000
     23 H2         -2.8513    0.7628   -0.0811 H         1 <0>         0.0000
     24 H3         -1.9611    2.2119   -4.7486 H         1 <0>         0.0000
     25 H4         -4.6324    0.5589   -1.8247 H         1 <0>         0.0000
     26 H5         -1.5708   -1.8745   -3.9974 H         1 <0>         0.0000
     27 H6          1.9455    0.3696   -3.7360 H         1 <0>         0.0000
     28 H7          2.5420   -0.5471    2.6485 H         1 <0>         0.0000
     29 H8          1.1246   -1.5212    1.9838 H         1 <0>         0.0000
     30 H9         -0.4729    0.2765    2.7293 H         1 <0>         0.0000
     31 H10         0.9231    1.2213    3.4505 H         1 <0>         0.0000
     32 H11         2.9150    3.4386    1.1599 H         1 <0>         0.0000
     33 H12         2.3197    2.8190    2.7168 H         1 <0>         0.0000
     34 H13         1.1611    3.2780    1.4408 H         1 <0>         0.0000
     35 H14        -0.7454    2.1249    0.5428 H         1 <0>         0.0000
     36 H15         0.4744    2.3884   -0.6994 H         1 <0>         0.0000
     37 H16         2.1285    0.4834   -1.1823 H         1 <0>         0.0000
     38 H17         1.7577   -1.1388   -0.5700 H         1 <0>         0.0000
     39 H18        -0.9425   -1.0183   -0.4079 H         1 <0>         0.0000
@<TRIPOS>BOND
     1    1    3 ar
     2    1    7 ar
     3    1   22 1
     4    2    4 ar
     5    2    7 ar
     6    2   23 1
     7    3    8 ar
     8    3   24 1
     9    4    8 ar
    10    4   25 1
    11    5   16 1
    12    5   17 2
    13    5   26 1
    14    6   16 2
    15    6   18 1
    16    6   27 1
    17    7   13 1
    18    8   21 1
    19    9   10 1
    20    9   11 1
    21    9   28 1
    22    9   29 1
    23   10   11 1
    24   10   30 1
    25   10   31 1
    26   11   15 1
    27   11   20 1
    28   12   20 1
    29   12   32 1
    30   12   33 1
    31   12   34 1
    32   13   15 1
    33   13   35 1
    34   13   36 1
    35   14   15 1
    36   14   18 1
    37   14   37 1
    38   14   38 1
    39   15   19 1
    40   17   18 1
    41   19   39 1
