@<TRIPOS>MOLECULE
*****
   10    10     0     0     0
SMALL
NO_CHARGES

@<TRIPOS>ATOM
      1 C1         -0.5562   -1.1634    1.7995 C.2       1 <0>         0.0000
      2 C2         -0.0914   -0.9340    0.5221 C.2       1 <0>         0.0000
      3 C3         -0.1046   -3.2539    1.2598 C.2       1 <0>         0.0000
      4 C4          0.0387   -4.7273    1.3341 C.2       1 <0>         0.0000
      5 N1         -0.5597   -2.4670    2.2037 N.2       1 <0>         0.0000
      6 O1         -0.2557   -5.3991    2.3030 O.2       1 <0>         0.0000
      7 S1          0.3665   -2.4163   -0.2182 S.3       1 <0>         0.0000
      8 H1         -0.9067   -0.3908    2.4758 H         1 <0>         0.0000
      9 H2         -0.0012    0.0107    0.0016 H         1 <0>         0.0000
     10 H3          0.4480   -5.1884    0.4099 H         1 <0>         0.0000
@<TRIPOS>BOND
     1    1    2 2
     2    1    5 1
     3    1    8 1
     4    2    7 1
     5    2    9 1
     6    3    4 1
     7    3    5 2
     8    3    7 1
     9    4    6 2
    10    4   10 1
