@<TRIPOS>MOLECULE
*****
   56    58     0     0     0
SMALL
NO_CHARGES

@<TRIPOS>ATOM
      1 C1         -2.5664    0.2661   -2.4969 C.ar      1 <0>         0.0000
      2 C2         -2.9869    2.5438   -1.8743 C.ar      1 <0>         0.0000
      3 C3         -3.6646    0.2823   -3.3494 C.ar      1 <0>         0.0000
      4 C4         -4.0951    2.5810   -2.7327 C.ar      1 <0>         0.0000
      5 C5         -2.2047    1.3954   -1.7415 C.ar      1 <0>         0.0000
      6 C6         -4.4400    1.4461   -3.4742 C.ar      1 <0>         0.0000
      7 C7          0.7130   -1.6316   -1.0156 C.3       1 <0>         0.0000
      8 C8          0.8613   -2.3671    0.3343 C.3       1 <0>         0.0000
      9 C9         -1.3440    0.3860    0.3921 C.3       1 <0>         0.0000
     10 C10        -0.1935    0.3019    1.4043 C.3       1 <0>         0.0000
     11 C11         0.2927    0.9012   -1.4960 C.3       1 <0>         0.0000
     12 C12         1.1381   -0.1517   -0.7585 C.3       1 <0>         0.0000
     13 C13         1.6953   -1.4086    1.1990 C.3       1 <0>         0.0000
     14 C14        -1.0245    1.3356   -0.7806 C.3       1 <0>         0.0000
     15 C15         1.2067    0.0012    0.7841 C.3       1 <0>         0.0000
     16 C16         2.2150    1.0721    1.2141 C.3       1 <0>         0.0000
     17 C17         3.8734   -1.4616    3.3723 C.3       1 <0>         0.0000
     18 C18         2.0149   -2.4854    4.7200 C.3       1 <0>         0.0000
     19 C19         2.8844   -3.6891    2.6911 C.3       1 <0>         0.0000
     20 C20        -6.3093    2.5293   -4.4994 C.3       1 <0>         0.0000
     21 C21         2.5968   -2.3150    3.3140 C.3       1 <0>         0.0000
     22 O1         -0.8642    2.6732   -0.2570 O.3       1 <0>         0.0000
     23 O2         -5.5015    1.3691   -4.3407 O.3       1 <0>         0.0000
     24 O3          1.5519   -1.6175    2.5980 O.3       1 <0>         0.0000
     25 H1         -1.9827   -0.6483   -2.4254 H         1 <0>         0.0000
     26 H2         -2.7271    3.4261   -1.3015 H         1 <0>         0.0000
     27 H3         -3.9392   -0.5934   -3.9306 H         1 <0>         0.0000
     28 H4         -4.6713    3.4967   -2.8077 H         1 <0>         0.0000
     29 H5          1.3506   -2.0732   -1.7879 H         1 <0>         0.0000
     30 H6         -0.3113   -1.7015   -1.3903 H         1 <0>         0.0000
     31 H7         -0.1099   -2.5086    0.8194 H         1 <0>         0.0000
     32 H8          1.3214   -3.3538    0.2388 H         1 <0>         0.0000
     33 H9         -1.5818   -0.6062   -0.0002 H         1 <0>         0.0000
     34 H10        -2.2503    0.7510    0.8861 H         1 <0>         0.0000
     35 H11        -0.1419    1.2450    1.9618 H         1 <0>         0.0000
     36 H12        -0.4289   -0.4485    2.1626 H         1 <0>         0.0000
     37 H13         0.8752    1.8154   -1.6464 H         1 <0>         0.0000
     38 H14         0.0722    0.5245   -2.4987 H         1 <0>         0.0000
     39 H15         2.1647   -0.0471   -1.1309 H         1 <0>         0.0000
     40 H16         2.7509   -1.4875    0.9077 H         1 <0>         0.0000
     41 H17         3.2160    0.8594    0.8210 H         1 <0>         0.0000
     42 H18         2.2824    1.1202    2.3057 H         1 <0>         0.0000
     43 H19         1.9299    2.0680    0.8528 H         1 <0>         0.0000
     44 H20         4.3031   -1.2996    2.3793 H         1 <0>         0.0000
     45 H21         3.6549   -0.4849    3.8137 H         1 <0>         0.0000
     46 H22         4.6354   -1.9554    3.9844 H         1 <0>         0.0000
     47 H23         1.0996   -3.0834    4.6808 H         1 <0>         0.0000
     48 H24         1.7672   -1.5086    5.1461 H         1 <0>         0.0000
     49 H25         2.7313   -2.9835    5.3806 H         1 <0>         0.0000
     50 H26         1.9630   -4.2742    2.6162 H         1 <0>         0.0000
     51 H27         3.3198   -3.5995    1.6912 H         1 <0>         0.0000
     52 H28         3.5958   -4.2437    3.3118 H         1 <0>         0.0000
     53 H29        -7.0824    2.2600   -5.2207 H         1 <0>         0.0000
     54 H30        -5.7269    3.3734   -4.8900 H         1 <0>         0.0000
     55 H31        -6.7822    2.8217   -3.5532 H         1 <0>         0.0000
     56 H32        -0.1725    2.6413    0.4208 H         1 <0>         0.0000
@<TRIPOS>BOND
     1    1    3 ar
     2    1    5 ar
     3    1   25 1
     4    2    4 ar
     5    2    5 ar
     6    2   26 1
     7    3    6 ar
     8    3   27 1
     9    4    6 ar
    10    4   28 1
    11    5   14 1
    12    6   23 1
    13    7    8 1
    14    7   12 1
    15    7   29 1
    16    7   30 1
    17    8   13 1
    18    8   31 1
    19    8   32 1
    20    9   10 1
    21    9   14 1
    22    9   33 1
    23    9   34 1
    24   10   15 1
    25   10   35 1
    26   10   36 1
    27   11   12 1
    28   11   14 1
    29   11   37 1
    30   11   38 1
    31   12   15 1
    32   12   39 1
    33   13   15 1
    34   13   24 1
    35   13   40 1
    36   14   22 1
    37   15   16 1
    38   16   41 1
    39   16   42 1
    40   16   43 1
    41   17   21 1
    42   17   44 1
    43   17   45 1
    44   17   46 1
    45   18   21 1
    46   18   47 1
    47   18   48 1
    48   18   49 1
    49   19   21 1
    50   19   50 1
    51   19   51 1
    52   19   52 1
    53   20   23 1
    54   20   53 1
    55   20   54 1
    56   20   55 1
    57   21   24 1
    58   22   56 1
