@<TRIPOS>MOLECULE
*****
   16    16     0     0     0
SMALL
NO_CHARGES

@<TRIPOS>ATOM
      1 C1          1.9053   -1.0467   -0.1585 C.ar      1 <0>         0.0000
      2 C2          2.9193   -1.6316    0.6140 C.ar      1 <0>         0.0000
      3 C3          0.8135   -0.4624    0.4841 C.ar      1 <0>         0.0000
      4 C4          2.8418   -1.6316    2.0046 C.ar      1 <0>         0.0000
      5 C5          0.7202   -0.4539    1.8828 C.ar      1 <0>         0.0000
      6 C6          1.7395   -1.0414    2.6453 C.ar      1 <0>         0.0000
      7 C7          0.6576   -0.5085    4.7127 C.3       1 <0>         0.0000
      8 O1          1.7529   -1.0910    4.0150 O.3       1 <0>         0.0000
      9 H1          1.9691   -1.0485   -1.2429 H         1 <0>         0.0000
     10 H2          3.7766   -2.0910    0.1285 H         1 <0>         0.0000
     11 H3          0.0192   -0.0049   -0.1005 H         1 <0>         0.0000
     12 H4          3.6193   -2.0807    2.6158 H         1 <0>         0.0000
     13 H5         -0.1395    0.0072    2.3558 H         1 <0>         0.0000
     14 H6          0.8653   -0.6573    5.7734 H         1 <0>         0.0000
     15 H7         -0.2887   -1.0009    4.4561 H         1 <0>         0.0000
     16 H8          0.5768    0.5662    4.5064 H         1 <0>         0.0000
@<TRIPOS>BOND
     1    1    3 ar
     2    1    2 ar
     3    1    9 1
     4    2    4 ar
     5    2   10 1
     6    3    5 ar
     7    3   11 1
     8    4    6 ar
     9    4   12 1
    10    5    6 ar
    11    5   13 1
    12    6    8 1
    13    7    8 1
    14    7   14 1
    15    7   15 1
    16    7   16 1
