@<TRIPOS>MOLECULE
*****
   25    26     0     0     0
SMALL
NO_CHARGES

@<TRIPOS>ATOM
      1 C1         -4.7413   -0.1607   -1.3465 C.ar      1 <0>         0.0000
      2 C2         -3.6978    0.0857   -2.2414 C.ar      1 <0>         0.0000
      3 C3         -4.5699   -1.0232   -0.2601 C.ar      1 <0>         0.0000
      4 C4         -2.4475   -0.5201   -2.0565 C.ar      1 <0>         0.0000
      5 C5         -3.3313   -1.6315   -0.0910 C.ar      1 <0>         0.0000
      6 C6         -2.2801   -1.3892   -0.9714 C.ar      1 <0>         0.0000
      7 C7          0.8420    0.6486   -0.3897 C.3       1 <0>         0.0000
      8 C8          1.5032   -0.1428   -1.5157 C.3       1 <0>         0.0000
      9 C9          0.1460    1.4669   -2.4377 C.3       1 <0>         0.0000
     10 C10        -1.0189    0.9618   -3.2895 C.3       1 <0>         0.0000
     11 O1         -0.2005    1.3713   -1.0628 O.3       1 <0>         0.0000
     12 O2          1.3382    0.7294   -2.6454 O.3       1 <0>         0.0000
     13 O3         -1.3952   -0.3712   -2.9183 O.3       1 <0>         0.0000
     14 F1         -3.1198   -2.4690    0.9484 F         1 <0>         0.0000
     15 F2         -1.0912   -1.9923   -0.7597 F         1 <0>         0.0000
     16 H1         -5.7046    0.3148   -1.5048 H         1 <0>         0.0000
     17 H2         -3.8554    0.7363   -3.0956 H         1 <0>         0.0000
     18 H3         -5.3679   -1.2331    0.4445 H         1 <0>         0.0000
     19 H4          0.3824    0.0178    0.3736 H         1 <0>         0.0000
     20 H5          1.5403    1.3541    0.0784 H         1 <0>         0.0000
     21 H6          2.5738   -0.3006   -1.3673 H         1 <0>         0.0000
     22 H7          0.9988   -1.0963   -1.6926 H         1 <0>         0.0000
     23 H8          0.3560    2.5122   -2.7123 H         1 <0>         0.0000
     24 H9         -0.7060    0.9241   -4.3359 H         1 <0>         0.0000
     25 H10        -1.8591    1.6554   -3.1911 H         1 <0>         0.0000
@<TRIPOS>BOND
     1    1    2 ar
     2    1    3 ar
     3    1   16 1
     4    2    4 ar
     5    2   17 1
     6    3    5 ar
     7    3   18 1
     8    4    6 ar
     9    4   13 1
    10    5    6 ar
    11    5   14 1
    12    6   15 1
    13    7    8 1
    14    7   11 1
    15    7   19 1
    16    7   20 1
    17    8   12 1
    18    8   21 1
    19    8   22 1
    20    9   10 1
    21    9   12 1
    22    9   11 1
    23    9   23 1
    24   10   13 1
    25   10   24 1
    26   10   25 1
