@<TRIPOS>MOLECULE
*****
   48    50     0     0     0
SMALL
NO_CHARGES

@<TRIPOS>ATOM
      1 C1         -2.9408   -1.3075    1.6673 C.ar      1 <0>         0.0000
      2 C2          3.8601   -1.3878    0.5144 C.ar      1 <0>         0.0000
      3 C3         -1.8074   -1.7126    0.9613 C.ar      1 <0>         0.0000
      4 C4          2.6432   -1.8157   -0.0107 C.ar      1 <0>         0.0000
      5 C5         -2.9802    0.7313    0.4001 C.ar      1 <0>         0.0000
      6 C6          1.8229    0.4638    0.0477 C.ar      1 <0>         0.0000
      7 C7         -1.8562    0.3374   -0.3309 C.ar      1 <0>         0.0000
      8 C8         -3.5467   -0.0742    1.3963 C.ar      1 <0>         0.0000
      9 C9          4.0817   -0.0442    0.8341 C.ar      1 <0>         0.0000
     10 C10         3.0544    0.8769    0.5937 C.ar      1 <0>         0.0000
     11 C11         1.6122   -0.8983   -0.2527 C.ar      1 <0>         0.0000
     12 C12        -1.2550   -0.9056   -0.0422 C.ar      1 <0>         0.0000
     13 C13         0.7053    1.4353   -0.1350 C.2       1 <0>         0.0000
     14 C14         4.5805    1.9141    4.3678 C.2       1 <0>         0.0000
     15 C15         4.3515    0.7091    3.8292 C.2       1 <0>         0.0000
     16 C16        -1.3025    1.2796   -1.3786 C.3       1 <0>         0.0000
     17 C17        -4.7418    0.4010    2.1879 C.3       1 <0>         0.0000
     18 C18         3.0435   -0.0192    4.0206 C.3       1 <0>         0.0000
     19 C19         3.4530    3.0817   -0.1844 C.3       1 <0>         0.0000
     20 C20         5.4155    0.0205    2.9959 C.3       1 <0>         0.0000
     21 C21         5.3763    0.3767    1.4891 C.3       1 <0>         0.0000
     22 O1          0.2967    2.2218    0.6912 O.2       1 <0>         0.0000
     23 O2          0.1384    1.2657   -1.3657 O.3       1 <0>         0.0000
     24 O3          6.4381   -0.3002    0.7939 O.3       1 <0>         0.0000
     25 O4          3.2595    2.1954    0.9253 O.3       1 <0>         0.0000
     26 S1          0.1195   -1.6009   -0.9802 S.3       1 <0>         0.0000
     27 H1         -3.3509   -1.9548    2.4392 H         1 <0>         0.0000
     28 H2          4.6578   -2.1041    0.6865 H         1 <0>         0.0000
     29 H3         -1.3425   -2.6694    1.1800 H         1 <0>         0.0000
     30 H4          2.4798   -2.8686   -0.2210 H         1 <0>         0.0000
     31 H5         -3.4167    1.7077    0.1975 H         1 <0>         0.0000
     32 H6          5.5332    2.4245    4.2378 H         1 <0>         0.0000
     33 H7          3.8196    2.4367    4.9422 H         1 <0>         0.0000
     34 H8         -1.5594    0.9530   -2.3893 H         1 <0>         0.0000
     35 H9         -1.6795    2.2929   -1.2186 H         1 <0>         0.0000
     36 H10        -4.4222    1.0107    3.0415 H         1 <0>         0.0000
     37 H11        -5.4081    1.0171    1.5768 H         1 <0>         0.0000
     38 H12        -5.3199   -0.4399    2.5816 H         1 <0>         0.0000
     39 H13         2.5692   -0.2595    3.0643 H         1 <0>         0.0000
     40 H14         2.3392    0.5748    4.6087 H         1 <0>         0.0000
     41 H15         3.2096   -0.9724    4.5394 H         1 <0>         0.0000
     42 H16         3.5905    4.0761    0.2430 H         1 <0>         0.0000
     43 H17         2.5837    3.0946   -0.8506 H         1 <0>         0.0000
     44 H18         4.3439    2.7932   -0.7565 H         1 <0>         0.0000
     45 H19         5.3347   -1.0692    3.0855 H         1 <0>         0.0000
     46 H20         6.4068    0.3057    3.3714 H         1 <0>         0.0000
     47 H21         5.4888    1.4613    1.3925 H         1 <0>         0.0000
     48 H22         7.2687   -0.0885    1.2490 H         1 <0>         0.0000
@<TRIPOS>BOND
     1    1    3 ar
     2    1    8 ar
     3    1   27 1
     4    2    4 ar
     5    2    9 ar
     6    2   28 1
     7    3   12 ar
     8    3   29 1
     9    4   11 ar
    10    4   30 1
    11    5    7 ar
    12    5    8 ar
    13    5   31 1
    14    6   10 ar
    15    6   11 ar
    16    6   13 1
    17    7   12 ar
    18    7   16 1
    19    8   17 1
    20    9   10 ar
    21    9   21 1
    22   10   25 1
    23   11   26 1
    24   12   26 1
    25   13   22 2
    26   13   23 1
    27   14   15 2
    28   14   32 1
    29   14   33 1
    30   15   18 1
    31   15   20 1
    32   16   23 1
    33   16   34 1
    34   16   35 1
    35   17   36 1
    36   17   37 1
    37   17   38 1
    38   18   39 1
    39   18   40 1
    40   18   41 1
    41   19   25 1
    42   19   42 1
    43   19   43 1
    44   19   44 1
    45   20   21 1
    46   20   45 1
    47   20   46 1
    48   21   24 1
    49   21   47 1
    50   24   48 1
