@<TRIPOS>MOLECULE
*****
   65    69     0     0     0
SMALL
NO_CHARGES

@<TRIPOS>ATOM
      1 C1         -5.8888   -5.7620   10.9930 C.ar      1 <0>         0.0000
      2 C2         -6.2680   -4.7988   10.0242 C.ar      1 <0>         0.0000
      3 C3          6.4135    1.3995   -2.6760 C.ar      1 <0>         0.0000
      4 C4          7.4381    0.6006   -2.1346 C.ar      1 <0>         0.0000
      5 C5         -4.5837   -6.2094   11.0507 C.ar      1 <0>         0.0000
      6 C6         -5.3371   -4.3020    9.1333 C.ar      1 <0>         0.0000
      7 C7          5.1358    1.4011   -2.1120 C.ar      1 <0>         0.0000
      8 C8          2.3827    0.7913   -0.2060 C.ar      1 <0>         0.0000
      9 C9          7.2122   -0.2098   -1.0177 C.ar      1 <0>         0.0000
     10 C10         1.4778    0.3149    0.7341 C.ar      1 <0>         0.0000
     11 C11        -2.2506   -6.1476   10.1845 C.ar      1 <0>         0.0000
     12 C12        -3.0098   -4.2509    8.2583 C.ar      1 <0>         0.0000
     13 C13         3.1970   -1.0971    1.7644 C.ar      1 <0>         0.0000
     14 C14        -3.6053   -5.7149   10.1478 C.ar      1 <0>         0.0000
     15 C15        -3.9869   -4.7437    9.1698 C.ar      1 <0>         0.0000
     16 C16         4.8829    0.5942   -0.9955 C.ar      1 <0>         0.0000
     17 C17         3.7094    0.3360   -0.1838 C.ar      1 <0>         0.0000
     18 C18         5.9330   -0.1992   -0.4550 C.ar      1 <0>         0.0000
     19 C19         4.0955   -0.5986    0.8103 C.ar      1 <0>         0.0000
     20 C20         1.8806   -0.6230    1.7127 C.ar      1 <0>         0.0000
     21 C21        -1.3183   -5.6616    9.3003 C.ar      1 <0>         0.0000
     22 C22        -1.7046   -4.6978    8.3081 C.ar      1 <0>         0.0000
     23 C23         6.6439   -4.4509    1.3342 C.2       1 <0>         0.0000
     24 C24         0.9589   -5.2238    9.7965 C.3       1 <0>         0.0000
     25 C25         5.9466   -3.3070    0.6167 C.3       1 <0>         0.0000
     26 C26        -0.0284   -2.1731    4.4435 C.3       1 <0>         0.0000
     27 C27         0.2253   -3.1447    5.6009 C.3       1 <0>         0.0000
     28 C28         6.1475   -1.9647    1.3339 C.3       1 <0>         0.0000
     29 C29         1.2287   -1.9321    3.6205 C.3       1 <0>         0.0000
     30 C30        -1.0360   -3.3878    6.4166 C.3       1 <0>         0.0000
     31 N1          5.4487   -0.8920    0.6576 N.pl3     1 <0>         0.0000
     32 O1          7.2479   -4.3378    2.3757 O.2       1 <0>         0.0000
     33 O2          6.5493   -5.6701    0.7272 O.3       1 <0>         0.0000
     34 O3         -0.0326   -6.1511    9.3309 O.3       1 <0>         0.0000
     35 O4          0.8946   -1.0145    2.5789 O.3       1 <0>         0.0000
     36 O5         -0.7062   -4.3036    7.4624 O.3       1 <0>         0.0000
     37 H1         -6.6297   -6.1469   11.6888 H         1 <0>         0.0000
     38 H2         -7.2975   -4.4523    9.9847 H         1 <0>         0.0000
     39 H3          6.6217    2.0196   -3.5435 H         1 <0>         0.0000
     40 H4          8.4246    0.6134   -2.5903 H         1 <0>         0.0000
     41 H5         -4.2889   -6.9489   11.7918 H         1 <0>         0.0000
     42 H6         -5.6307   -3.5639    8.3900 H         1 <0>         0.0000
     43 H7          4.3482    2.0185   -2.5370 H         1 <0>         0.0000
     44 H8          2.0573    1.5107   -0.9530 H         1 <0>         0.0000
     45 H9          8.0137   -0.8174   -0.6066 H         1 <0>         0.0000
     46 H10         0.4444    0.6471    0.7420 H         1 <0>         0.0000
     47 H11        -1.9305   -6.8851   10.9159 H         1 <0>         0.0000
     48 H12        -3.3206   -3.5237    7.5161 H         1 <0>         0.0000
     49 H13         3.5149   -1.8117    2.5139 H         1 <0>         0.0000
     50 H14         1.9071   -5.7648    9.7875 H         1 <0>         0.0000
     51 H15         0.7302   -4.9019   10.8204 H         1 <0>         0.0000
     52 H16         1.0267   -4.3514    9.1398 H         1 <0>         0.0000
     53 H17         4.8748   -3.5295    0.5444 H         1 <0>         0.0000
     54 H18         6.3203   -3.2362   -0.4121 H         1 <0>         0.0000
     55 H19        -0.8103   -2.5637    3.7818 H         1 <0>         0.0000
     56 H20        -0.3859   -1.2096    4.8250 H         1 <0>         0.0000
     57 H21         1.0038   -2.7510    6.2650 H         1 <0>         0.0000
     58 H22         0.5871   -4.1075    5.2218 H         1 <0>         0.0000
     59 H23         7.2104   -1.7230    1.3904 H         1 <0>         0.0000
     60 H24         5.7961   -2.0331    2.3649 H         1 <0>         0.0000
     61 H25         2.0275   -1.5117    4.2472 H         1 <0>         0.0000
     62 H26         1.5936   -2.8744    3.1880 H         1 <0>         0.0000
     63 H27        -1.8293   -3.8144    5.7880 H         1 <0>         0.0000
     64 H28        -1.4086   -2.4480    6.8466 H         1 <0>         0.0000
     65 H29         6.0392   -5.5941   -0.0975 H         1 <0>         0.0000
@<TRIPOS>BOND
     1    1    2 ar
     2    1    5 ar
     3    1   37 1
     4    2    6 ar
     5    2   38 1
     6    3    4 ar
     7    3    7 ar
     8    3   39 1
     9    4    9 ar
    10    4   40 1
    11    5   14 ar
    12    5   41 1
    13    6   15 ar
    14    6   42 1
    15    7   16 ar
    16    7   43 1
    17    8   10 ar
    18    8   17 ar
    19    8   44 1
    20    9   18 ar
    21    9   45 1
    22   10   20 ar
    23   10   46 1
    24   11   14 ar
    25   11   21 ar
    26   11   47 1
    27   12   15 ar
    28   12   22 ar
    29   12   48 1
    30   13   19 ar
    31   13   20 ar
    32   13   49 1
    33   14   15 ar
    34   16   17 1
    35   16   18 ar
    36   17   19 ar
    37   18   31 1
    38   19   31 1
    39   20   35 1
    40   21   22 ar
    41   21   34 1
    42   22   36 1
    43   23   25 1
    44   23   32 2
    45   23   33 1
    46   24   34 1
    47   24   50 1
    48   24   51 1
    49   24   52 1
    50   25   28 1
    51   25   53 1
    52   25   54 1
    53   26   27 1
    54   26   29 1
    55   26   55 1
    56   26   56 1
    57   27   30 1
    58   27   57 1
    59   27   58 1
    60   28   31 1
    61   28   59 1
    62   28   60 1
    63   29   35 1
    64   29   61 1
    65   29   62 1
    66   30   36 1
    67   30   63 1
    68   30   64 1
    69   33   65 1
