@<TRIPOS>MOLECULE
*****
   56    59     0     0     0
SMALL
NO_CHARGES

@<TRIPOS>ATOM
      1 C1          0.9557    2.5126    1.9980 C.ar      1 <0>         0.0000
      2 C2          0.9806    1.9179    0.7138 C.ar      1 <0>         0.0000
      3 C3          0.4068    1.8742    3.1141 C.ar      1 <0>         0.0000
      4 C4         -0.0627   -0.0088    1.6391 C.ar      1 <0>         0.0000
      5 C5          0.4620    0.6386    0.5201 C.ar      1 <0>         0.0000
      6 C6         -0.6179   -1.3182    1.7251 C.2       1 <0>         0.0000
      7 C7         -0.1150    0.5900    2.9175 C.ar      1 <0>         0.0000
      8 C8         -1.0103   -1.4982    3.0347 C.2       1 <0>         0.0000
      9 C9         -0.5381   -2.1892    0.5064 C.3       1 <0>         0.0000
     10 C10        -0.0297    0.8730   -1.9566 C.3       1 <0>         0.0000
     11 C11        -0.2596   -1.2363   -3.2685 C.3       1 <0>         0.0000
     12 C12         0.3796   -0.0948   -0.8126 C.3       1 <0>         0.0000
     13 C13        -0.7988    0.1757   -3.0926 C.3       1 <0>         0.0000
     14 C14        -0.6293   -1.2692   -0.7316 C.3       1 <0>         0.0000
     15 C15        -1.1187   -4.6614   -3.6175 C.3       1 <0>         0.0000
     16 C16        -1.8845   -3.6604    5.8588 C.3       1 <0>         0.0000
     17 C17        -1.4193    1.2965   -7.0858 C.3       1 <0>         0.0000
     18 C18        -1.6786   -2.6419    3.7303 C.3       1 <0>         0.0000
     19 C19        -0.7083    0.9614   -4.4059 C.3       1 <0>         0.0000
     20 C20         0.2882   -4.1408   -3.2970 C.3       1 <0>         0.0000
     21 C21         0.3625   -3.3028   -2.0195 C.3       1 <0>         0.0000
     22 N1         -0.7294   -0.3355    3.7461 N.pl3     1 <0>         0.0000
     23 N2         -0.5558   -2.0948   -2.0485 N.4       1 <0>         0.0000
     24 O1         -1.2253   -2.6683    5.0746 O.3       1 <0>         0.0000
     25 S1         -1.8527    0.2536   -5.6526 S.3       1 <0>         0.0000
     26 H1          1.3720    3.5085    2.1178 H         1 <0>         0.0000
     27 H2          1.4060    2.4809   -0.1126 H         1 <0>         0.0000
     28 H3          0.3910    2.3651    4.0831 H         1 <0>         0.0000
     29 H4          0.4206   -2.7195    0.5126 H         1 <0>         0.0000
     30 H5         -1.3346   -2.9423    0.4688 H         1 <0>         0.0000
     31 H6         -0.6475    1.6754   -1.5461 H         1 <0>         0.0000
     32 H7          0.8717    1.3445   -2.3611 H         1 <0>         0.0000
     33 H8         -0.6935   -1.7364   -4.1331 H         1 <0>         0.0000
     34 H9          0.8260   -1.2192   -3.3891 H         1 <0>         0.0000
     35 H10         1.3673   -0.5212   -1.0384 H         1 <0>         0.0000
     36 H11        -1.8620    0.1115   -2.8277 H         1 <0>         0.0000
     37 H12        -1.6362   -0.8438   -0.7414 H         1 <0>         0.0000
     38 H13        -1.5507   -5.2010   -2.7672 H         1 <0>         0.0000
     39 H14        -1.8124   -3.8617   -3.9056 H         1 <0>         0.0000
     40 H15        -1.0843   -5.3542   -4.4616 H         1 <0>         0.0000
     41 H16        -1.4738   -3.5911    6.8670 H         1 <0>         0.0000
     42 H17        -1.6974   -4.6671    5.4605 H         1 <0>         0.0000
     43 H18        -2.9684   -3.4831    5.8934 H         1 <0>         0.0000
     44 H19        -2.0507    0.9727   -7.9156 H         1 <0>         0.0000
     45 H20        -0.3708    1.1655   -7.3644 H         1 <0>         0.0000
     46 H21        -1.6247    2.3487   -6.8753 H         1 <0>         0.0000
     47 H22        -2.7746   -2.5165    3.7082 H         1 <0>         0.0000
     48 H23        -1.4443   -3.5850    3.2129 H         1 <0>         0.0000
     49 H24         0.3177    0.9416   -4.7922 H         1 <0>         0.0000
     50 H25        -0.9773    2.0052   -4.2166 H         1 <0>         0.0000
     51 H26         0.7023   -3.5969   -4.1503 H         1 <0>         0.0000
     52 H27         0.9599   -4.9891   -3.1285 H         1 <0>         0.0000
     53 H28         0.0574   -3.9123   -1.1709 H         1 <0>         0.0000
     54 H29         1.3706   -2.9259   -1.8350 H         1 <0>         0.0000
     55 H30        -0.8034   -0.2930    4.7550 H         1 <0>         0.0000
     56 H31        -1.5000   -2.4677   -2.1818 H         1 <0>         0.0000
@<TRIPOS>BOND
     1    1    2 ar
     2    1    3 ar
     3    1   26 1
     4    2    5 ar
     5    2   27 1
     6    3    7 ar
     7    3   28 1
     8    4    5 ar
     9    4    6 1
    10    4    7 ar
    11    5   12 1
    12    6    8 2
    13    6    9 1
    14    7   22 1
    15    8   18 1
    16    8   22 1
    17    9   14 1
    18    9   29 1
    19    9   30 1
    20   10   12 1
    21   10   13 1
    22   10   31 1
    23   10   32 1
    24   11   13 1
    25   11   23 1
    26   11   33 1
    27   11   34 1
    28   12   14 1
    29   12   35 1
    30   13   19 1
    31   13   36 1
    32   14   23 1
    33   14   37 1
    34   15   20 1
    35   15   38 1
    36   15   39 1
    37   15   40 1
    38   16   24 1
    39   16   41 1
    40   16   42 1
    41   16   43 1
    42   17   25 1
    43   17   44 1
    44   17   45 1
    45   17   46 1
    46   18   24 1
    47   18   47 1
    48   18   48 1
    49   19   25 1
    50   19   49 1
    51   19   50 1
    52   20   21 1
    53   20   51 1
    54   20   52 1
    55   21   23 1
    56   21   53 1
    57   21   54 1
    58   22   55 1
    59   23   56 1
