@<TRIPOS>MOLECULE
*****
   65    69     0     0     0
SMALL
NO_CHARGES

@<TRIPOS>ATOM
      1 C1         -6.6610   -7.6713    9.1187 C.ar      1 <0>         0.0000
      2 C2         -6.9237   -6.3812    8.5926 C.ar      1 <0>         0.0000
      3 C3          6.7511    2.8055   -0.8825 C.ar      1 <0>         0.0000
      4 C4          7.6512    1.7368   -0.7135 C.ar      1 <0>         0.0000
      5 C5         -5.4336   -8.2681    8.9085 C.ar      1 <0>         0.0000
      6 C6         -5.9563   -5.7137    7.8677 C.ar      1 <0>         0.0000
      7 C7          5.4612    2.7437   -0.3505 C.ar      1 <0>         0.0000
      8 C8          2.5793    1.7764    1.1852 C.ar      1 <0>         0.0000
      9 C9          7.2864    0.5863   -0.0074 C.ar      1 <0>         0.0000
     10 C10         1.5869    1.0807    1.8644 C.ar      1 <0>         0.0000
     11 C11        -3.1483   -8.1935    7.9238 C.ar      1 <0>         0.0000
     12 C12        -3.6687   -5.6332    6.8954 C.ar      1 <0>         0.0000
     13 C13         3.0853   -0.8251    2.2274 C.ar      1 <0>         0.0000
     14 C14        -4.4207   -7.6050    8.1659 C.ar      1 <0>         0.0000
     15 C15        -4.6846   -6.3035    7.6350 C.ar      1 <0>         0.0000
     16 C16         5.0696    1.5999    0.3567 C.ar      1 <0>         0.0000
     17 C17         3.8416    1.1898    1.0103 C.ar      1 <0>         0.0000
     18 C18         5.9960    0.5333    0.5267 C.ar      1 <0>         0.0000
     19 C19         4.0744   -0.1024    1.5457 C.ar      1 <0>         0.0000
     20 C20         1.8361   -0.2118    2.3810 C.ar      1 <0>         0.0000
     21 C21        -2.1787   -7.5359    7.2066 C.ar      1 <0>         0.0000
     22 C22        -2.4382   -6.2228    6.6860 C.ar      1 <0>         0.0000
     23 C23         6.0705   -4.1533    0.5297 C.2       1 <0>         0.0000
     24 C24        -0.6400   -8.5471    5.7115 C.3       1 <0>         0.0000
     25 C25         5.5994   -2.7280    0.2921 C.3       1 <0>         0.0000
     26 C26        -0.3562   -2.5096    4.2322 C.3       1 <0>         0.0000
     27 C27        -0.2711   -3.9188    4.8282 C.3       1 <0>         0.0000
     28 C28         5.9272   -1.8057    1.4745 C.3       1 <0>         0.0000
     29 C29         0.9528   -2.1004    3.5733 C.3       1 <0>         0.0000
     30 C30        -1.5724   -4.3270    5.5025 C.3       1 <0>         0.0000
     31 N1          5.3886   -0.4767    1.2767 N.pl3     1 <0>         0.0000
     32 O1          6.5435   -4.5520    1.5686 O.2       1 <0>         0.0000
     33 O2          5.9164   -5.0073   -0.5243 O.3       1 <0>         0.0000
     34 O3         -0.9408   -8.1152    7.0466 O.3       1 <0>         0.0000
     35 O4          0.7765   -0.7940    3.0246 O.3       1 <0>         0.0000
     36 O5         -1.3965   -5.6499    6.0127 O.3       1 <0>         0.0000
     37 H1         -7.4291   -8.1875    9.6886 H         1 <0>         0.0000
     38 H2         -7.8920   -5.9177    8.7634 H         1 <0>         0.0000
     39 H3          7.0658    3.6866   -1.4350 H         1 <0>         0.0000
     40 H4          8.6496    1.8051   -1.1374 H         1 <0>         0.0000
     41 H5         -5.2276   -9.2572    9.3113 H         1 <0>         0.0000
     42 H6         -6.1597   -4.7232    7.4662 H         1 <0>         0.0000
     43 H7          4.7702    3.5717   -0.4875 H         1 <0>         0.0000
     44 H8          2.3707    2.7678    0.7912 H         1 <0>         0.0000
     45 H9          7.9929   -0.2293    0.1204 H         1 <0>         0.0000
     46 H10         0.6000    1.5073    2.0137 H         1 <0>         0.0000
     47 H11        -2.9180   -9.1810    8.3151 H         1 <0>         0.0000
     48 H12        -3.8826   -4.6417    6.5112 H         1 <0>         0.0000
     49 H13         3.2873   -1.8119    2.6253 H         1 <0>         0.0000
     50 H14         0.3511   -9.0028    5.7570 H         1 <0>         0.0000
     51 H15        -0.6256   -7.7038    5.0147 H         1 <0>         0.0000
     52 H16        -1.3717   -9.2936    5.3773 H         1 <0>         0.0000
     53 H17         4.5149   -2.7388    0.1253 H         1 <0>         0.0000
     54 H18         6.0520   -2.3323   -0.6252 H         1 <0>         0.0000
     55 H19        -1.1562   -2.4587    3.4844 H         1 <0>         0.0000
     56 H20        -0.6006   -1.7785    5.0114 H         1 <0>         0.0000
     57 H21         0.5374   -3.9753    5.5660 H         1 <0>         0.0000
     58 H22        -0.0380   -4.6491    4.0443 H         1 <0>         0.0000
     59 H23         7.0080   -1.7393    1.6138 H         1 <0>         0.0000
     60 H24         5.5267   -2.2257    2.3986 H         1 <0>         0.0000
     61 H25         1.7688   -2.0911    4.3090 H         1 <0>         0.0000
     62 H26         1.2203   -2.8076    2.7753 H         1 <0>         0.0000
     63 H27        -2.4048   -4.3109    4.7854 H         1 <0>         0.0000
     64 H28        -1.8166   -3.6417    6.3254 H         1 <0>         0.0000
     65 H29         5.5304   -4.5357   -1.2824 H         1 <0>         0.0000
@<TRIPOS>BOND
     1    1    2 ar
     2    1    5 ar
     3    1   37 1
     4    2    6 ar
     5    2   38 1
     6    3    4 ar
     7    3    7 ar
     8    3   39 1
     9    4    9 ar
    10    4   40 1
    11    5   14 ar
    12    5   41 1
    13    6   15 ar
    14    6   42 1
    15    7   16 ar
    16    7   43 1
    17    8   10 ar
    18    8   17 ar
    19    8   44 1
    20    9   18 ar
    21    9   45 1
    22   10   20 ar
    23   10   46 1
    24   11   14 ar
    25   11   21 ar
    26   11   47 1
    27   12   15 ar
    28   12   22 ar
    29   12   48 1
    30   13   19 ar
    31   13   20 ar
    32   13   49 1
    33   14   15 ar
    34   16   17 1
    35   16   18 ar
    36   17   19 ar
    37   18   31 1
    38   19   31 1
    39   20   35 1
    40   21   22 ar
    41   21   34 1
    42   22   36 1
    43   23   25 1
    44   23   32 2
    45   23   33 1
    46   24   34 1
    47   24   50 1
    48   24   51 1
    49   24   52 1
    50   25   28 1
    51   25   53 1
    52   25   54 1
    53   26   27 1
    54   26   29 1
    55   26   55 1
    56   26   56 1
    57   27   30 1
    58   27   57 1
    59   27   58 1
    60   28   31 1
    61   28   59 1
    62   28   60 1
    63   29   35 1
    64   29   61 1
    65   29   62 1
    66   30   36 1
    67   30   63 1
    68   30   64 1
    69   33   65 1
