@<TRIPOS>MOLECULE
*****
   16    16     0     0     0
SMALL
NO_CHARGES

@<TRIPOS>ATOM
      1 C1          4.0392   -2.2139   -0.1071 C.1       1 <0>         0.0000
      2 C2          1.8622   -1.0611   -0.1368 C.ar      1 <0>         0.0000
      3 C3          0.7900   -0.4902    0.5424 C.ar      1 <0>         0.0000
      4 C4          2.9054   -1.6026    1.9872 C.ar      1 <0>         0.0000
      5 C5          2.9280   -1.6234    0.5847 C.ar      1 <0>         0.0000
      6 C6          1.8260   -1.0397    2.6769 C.ar      1 <0>         0.0000
      7 C7          0.7650   -0.4836    1.9408 C.ar      1 <0>         0.0000
      8 C8          1.8088   -1.1191    4.1836 C.2       1 <0>         0.0000
      9 N1          4.9436   -2.6879   -0.6682 N.1       1 <0>         0.0000
     10 O1          0.9115   -1.6089    4.8217 O.2       1 <0>         0.0000
     11 O2          2.9240   -0.6316    4.7979 O.3       1 <0>         0.0000
     12 Cl1        -0.5868    0.2673    2.7396 Cl        1 <0>         0.0000
     13 H1          1.8778   -1.0714   -1.2220 H         1 <0>         0.0000
     14 H2         -0.0328   -0.0447   -0.0070 H         1 <0>         0.0000
     15 H3          3.7235   -2.0571    2.5388 H         1 <0>         0.0000
     16 H4          3.4885   -0.1730    4.1518 H         1 <0>         0.0000
@<TRIPOS>BOND
     1    1    5 1
     2    1    9 3
     3    2    3 ar
     4    2    5 ar
     5    2   13 1
     6    3    7 ar
     7    3   14 1
     8    4    5 ar
     9    4    6 ar
    10    4   15 1
    11    6    7 ar
    12    6    8 1
    13    7   12 1
    14    8   10 2
    15    8   11 1
    16   11   16 1
