@<TRIPOS>MOLECULE
*****
   63    67     0     0     0
SMALL
NO_CHARGES

@<TRIPOS>ATOM
      1 C1          4.7324    1.2500    1.1726 C.ar      1 <0>         0.0000
      2 C2          3.3346    0.8502    3.0980 C.ar      1 <0>         0.0000
      3 C3          5.6476    0.2959    1.6256 C.ar      1 <0>         0.0000
      4 C4          4.2369   -0.1059    3.5556 C.ar      1 <0>         0.0000
      5 C5          2.4034    5.1283    4.1385 C.ar      1 <0>         0.0000
      6 C6          0.6625    3.2718    2.9551 C.ar      1 <0>         0.0000
      7 C7          0.2336    4.0395    4.0768 C.ar      1 <0>         0.0000
      8 C8          3.5714    1.5378    1.8982 C.ar      1 <0>         0.0000
      9 C9          5.3970   -0.3820    2.8192 C.ar      1 <0>         0.0000
     10 C10         2.8535    4.3566    3.0723 C.ar      1 <0>         0.0000
     11 C11         1.9773    3.4123    2.4679 C.ar      1 <0>         0.0000
     12 C12         1.1161    4.9796    4.6466 C.ar      1 <0>         0.0000
     13 C13        -1.3272    2.8221    1.5045 C.2       1 <0>         0.0000
     14 C14        -0.3498    2.3910    2.3087 C.2       1 <0>         0.0000
     15 C15        -1.1099    3.9044    4.7023 C.2       1 <0>         0.0000
     16 C16        -2.2706    1.7102    1.1096 C.3       1 <0>         0.0000
     17 C17        -0.4772    0.9067    2.5933 C.3       1 <0>         0.0000
     18 C18        -1.5070    5.0962    5.5581 C.3       1 <0>         0.0000
     19 C19        -1.4945    0.4351    1.5271 C.3       1 <0>         0.0000
     20 C20        -0.8533    5.3467    8.5881 C.3       1 <0>         0.0000
     21 C21        -0.1026    4.3979    7.6110 C.3       1 <0>         0.0000
     22 C22        -0.6638    6.5002    7.5611 C.3       1 <0>         0.0000
     23 C23        -0.3514    5.4432    6.4845 C.3       1 <0>         0.0000
     24 C24         5.2823    4.0829    3.7201 C.3       1 <0>         0.0000
     25 C25         4.5745    6.0355    2.2508 C.3       1 <0>         0.0000
     26 C26         2.5692    2.5519    1.3502 C.3       1 <0>         0.0000
     27 C27         4.3023    4.5696    2.6355 C.3       1 <0>         0.0000
     28 C28         6.3666   -1.4036    3.3496 C.3       1 <0>         0.0000
     29 O1         -1.8358    2.9220    4.6133 O.2       1 <0>         0.0000
     30 O2          0.8019    5.7907    5.7012 O.3       1 <0>         0.0000
     31 O3          1.5647    1.8711    0.5949 O.3       1 <0>         0.0000
     32 F1          7.4102   -1.6132    2.5126 F         1 <0>         0.0000
     33 F2          6.8879   -1.0276    4.5485 F         1 <0>         0.0000
     34 F3          5.7697   -2.6074    3.5536 F         1 <0>         0.0000
     35 H1          4.9360    1.7884    0.2489 H         1 <0>         0.0000
     36 H2          2.4496    1.0797    3.6823 H         1 <0>         0.0000
     37 H3          6.5488    0.0868    1.0589 H         1 <0>         0.0000
     38 H4          4.0469   -0.6320    4.4870 H         1 <0>         0.0000
     39 H5          3.0528    5.8526    4.6191 H         1 <0>         0.0000
     40 H6         -1.4679    3.8589    1.2082 H         1 <0>         0.0000
     41 H7         -3.2168    1.8065    1.6618 H         1 <0>         0.0000
     42 H8         -2.5223    1.7163    0.0423 H         1 <0>         0.0000
     43 H9          0.4774    0.3783    2.5142 H         1 <0>         0.0000
     44 H10        -0.8578    0.7698    3.6128 H         1 <0>         0.0000
     45 H11        -1.7211    5.9593    4.9143 H         1 <0>         0.0000
     46 H12        -2.4072    4.8423    6.1213 H         1 <0>         0.0000
     47 H13        -2.1500   -0.3610    1.8923 H         1 <0>         0.0000
     48 H14        -0.9498    0.0469    0.6603 H         1 <0>         0.0000
     49 H15        -0.4089    5.4899    9.5753 H         1 <0>         0.0000
     50 H16        -1.9028    5.0677    8.7130 H         1 <0>         0.0000
     51 H17         0.9644    4.3337    7.8397 H         1 <0>         0.0000
     52 H18        -0.5044    3.3927    7.4588 H         1 <0>         0.0000
     53 H19        -1.5068    7.1694    7.3667 H         1 <0>         0.0000
     54 H20         0.2293    7.0939    7.7734 H         1 <0>         0.0000
     55 H21         5.1745    4.6644    4.6415 H         1 <0>         0.0000
     56 H22         6.3157    4.1893    3.3727 H         1 <0>         0.0000
     57 H23         5.1115    3.0304    3.9631 H         1 <0>         0.0000
     58 H24         4.4761    6.7083    3.1082 H         1 <0>         0.0000
     59 H25         3.8788    6.3761    1.4770 H         1 <0>         0.0000
     60 H26         5.5946    6.1395    1.8651 H         1 <0>         0.0000
     61 H27         3.1083    3.2143    0.6612 H         1 <0>         0.0000
     62 H28         4.5066    3.9758    1.7459 H         1 <0>         0.0000
     63 H29         2.0201    1.2071    0.0521 H         1 <0>         0.0000
@<TRIPOS>BOND
     1    1    3 ar
     2    1    8 ar
     3    1   35 1
     4    2    4 ar
     5    2    8 ar
     6    2   36 1
     7    3    9 ar
     8    3   37 1
     9    4    9 ar
    10    4   38 1
    11    5   10 ar
    12    5   12 ar
    13    5   39 1
    14    6    7 ar
    15    6   11 ar
    16    6   14 1
    17    7   12 ar
    18    7   15 1
    19    8   26 1
    20    9   28 1
    21   10   11 ar
    22   10   27 1
    23   11   26 1
    24   12   30 1
    25   13   14 2
    26   13   16 1
    27   13   40 1
    28   14   17 1
    29   15   18 1
    30   15   29 2
    31   16   19 1
    32   16   41 1
    33   16   42 1
    34   17   19 1
    35   17   43 1
    36   17   44 1
    37   18   23 1
    38   18   45 1
    39   18   46 1
    40   19   47 1
    41   19   48 1
    42   20   22 1
    43   20   21 1
    44   20   49 1
    45   20   50 1
    46   21   23 1
    47   21   51 1
    48   21   52 1
    49   22   23 1
    50   22   53 1
    51   22   54 1
    52   23   30 1
    53   24   27 1
    54   24   55 1
    55   24   56 1
    56   24   57 1
    57   25   27 1
    58   25   58 1
    59   25   59 1
    60   25   60 1
    61   26   31 1
    62   26   61 1
    63   27   62 1
    64   28   32 1
    65   28   33 1
    66   28   34 1
    67   31   63 1
