@<TRIPOS>MOLECULE
*****
   18    18     0     0     0
SMALL
NO_CHARGES

@<TRIPOS>ATOM
      1 C1          0.9875    1.5708    1.4213 C.1       1 <0>         0.0000
      2 C2          4.6052   -3.1024    0.7010 C.2       1 <0>         0.0000
      3 C3          4.1596   -3.7339    1.8310 C.2       1 <0>         0.0000
      4 C4          3.7473   -2.0239    0.3165 C.2       1 <0>         0.0000
      5 C5          2.6643   -1.8397    1.1436 C.2       1 <0>         0.0000
      6 C6          2.0822    0.5960    1.3513 C.3       1 <0>         0.0000
      7 C7          1.5375   -0.8364    1.1117 C.3       1 <0>         0.0000
      8 N1          0.0847    2.3030    1.4694 N.1       1 <0>         0.0000
      9 N2          0.8493   -0.8799   -0.1818 N.3       1 <0>         0.0000
     10 S1          2.6998   -3.0208    2.4259 S.3       1 <0>         0.0000
     11 Br1         4.1507   -0.9665   -1.2168 Br        1 <0>         0.0000
     12 H1          5.5008   -3.3799    0.1571 H         1 <0>         0.0000
     13 H2          4.6059   -4.5754    2.3452 H         1 <0>         0.0000
     14 H3          2.7514    0.8737    0.5335 H         1 <0>         0.0000
     15 H4          2.6466    0.6287    2.2876 H         1 <0>         0.0000
     16 H5          0.8711   -1.0657    1.9590 H         1 <0>         0.0000
     17 H6          0.0218   -0.2849   -0.1546 H         1 <0>         0.0000
     18 H7          0.5382   -1.8298   -0.3735 H         1 <0>         0.0000
@<TRIPOS>BOND
     1    1    6 1
     2    1    8 3
     3    2    3 2
     4    2    4 1
     5    2   12 1
     6    3   10 1
     7    3   13 1
     8    4    5 2
     9    4   11 1
    10    5    7 1
    11    5   10 1
    12    6    7 1
    13    6   14 1
    14    6   15 1
    15    7    9 1
    16    7   16 1
    17    9   17 1
    18    9   18 1
