@<TRIPOS>MOLECULE
*****
   65    70     0     0     0
SMALL
NO_CHARGES

@<TRIPOS>ATOM
      1 C1         -1.6149  -10.4851   -1.2150 C.ar      1 <0>         0.0000
      2 C2         -1.8931   -9.1269   -1.4030 C.ar      1 <0>         0.0000
      3 C3         -1.1301  -10.9312    0.0198 C.ar      1 <0>         0.0000
      4 C4         -1.6927   -8.2196   -0.3594 C.ar      1 <0>         0.0000
      5 C5         -0.9207  -10.0243    1.0609 C.ar      1 <0>         0.0000
      6 C6         -2.6461   -8.3242    5.3425 C.ar      1 <0>         0.0000
      7 C7         -3.4214   -9.2413    3.2386 C.ar      1 <0>         0.0000
      8 C8         -3.6097   -9.0628    6.0206 C.ar      1 <0>         0.0000
      9 C9         -4.3893   -9.9766    3.9194 C.ar      1 <0>         0.0000
     10 C10         1.6190   -5.2361    1.1105 C.2       1 <0>         0.0000
     11 C11         0.7934   -6.2954    0.8928 C.2       1 <0>         0.0000
     12 C12        -2.5302   -8.4046    3.9389 C.ar      1 <0>         0.0000
     13 C13        -1.2066   -8.6592    0.8849 C.ar      1 <0>         0.0000
     14 C14        -4.4926   -9.8993    5.3172 C.ar      1 <0>         0.0000
     15 C15        -1.5021   -7.5960    3.2776 C.2       1 <0>         0.0000
     16 C16        -0.9895   -7.7071    1.9865 C.2       1 <0>         0.0000
     17 C17         1.5461   -4.5685    2.3838 C.2       1 <0>         0.0000
     18 C18        -0.0665   -5.9878    3.1344 C.2       1 <0>         0.0000
     19 C19         5.3836   -2.8378    4.8452 C.2       1 <0>         0.0000
     20 C20         6.7089   -3.4619    4.4178 C.3       1 <0>         0.0000
     21 C21         6.9278   -2.9439    2.9861 C.3       1 <0>         0.0000
     22 C22        -6.2840  -12.4258    7.0482 C.3       1 <0>         0.0000
     23 C23        -5.3708  -11.2336    7.4540 C.3       1 <0>         0.0000
     24 C24        -6.1394  -11.9871    5.5626 C.3       1 <0>         0.0000
     25 C25         5.5041   -2.6204    2.4858 C.3       1 <0>         0.0000
     26 C26        -5.5823  -10.6211    6.0432 C.3       1 <0>         0.0000
     27 C27         3.4426   -1.7743    3.7767 C.3       1 <0>         0.0000
     28 C28         2.3553   -2.8368    3.8125 C.3       1 <0>         0.0000
     29 N1         -0.9271   -6.5463    3.9672 N.2       1 <0>         0.0000
     30 N2          0.7400   -4.9273    3.3544 N.2       1 <0>         0.0000
     31 N3         -0.0687   -6.6676    1.8933 N.pl3     1 <0>         0.0000
     32 N4          4.7855   -2.3194    3.7232 N.am      1 <0>         0.0000
     33 N5         -6.7788   -9.6195    6.1333 N.4       1 <0>         0.0000
     34 O1          4.8987   -2.8113    5.9732 O.2       1 <0>         0.0000
     35 O2          2.3776   -3.5269    2.5330 O.3       1 <0>         0.0000
     36 H1         -1.7702  -11.1902   -2.0269 H         1 <0>         0.0000
     37 H2         -2.2714   -8.7752   -2.3590 H         1 <0>         0.0000
     38 H3         -0.9018  -11.9834    0.1669 H         1 <0>         0.0000
     39 H4         -1.9321   -7.1684   -0.5009 H         1 <0>         0.0000
     40 H5         -0.5311  -10.3661    2.0160 H         1 <0>         0.0000
     41 H6         -1.9640   -7.6728    5.8783 H         1 <0>         0.0000
     42 H7         -3.3651   -9.3127    2.1587 H         1 <0>         0.0000
     43 H8         -3.6599   -9.0014    7.1066 H         1 <0>         0.0000
     44 H9         -5.0587  -10.6222    3.3542 H         1 <0>         0.0000
     45 H10         2.3174   -4.8986    0.3548 H         1 <0>         0.0000
     46 H11         0.7719   -6.8740   -0.0236 H         1 <0>         0.0000
     47 H12         7.5002   -3.1957    5.1211 H         1 <0>         0.0000
     48 H13         6.5913   -4.5513    4.4529 H         1 <0>         0.0000
     49 H14         7.5234   -2.0268    3.0085 H         1 <0>         0.0000
     50 H15         7.4370   -3.6597    2.3368 H         1 <0>         0.0000
     51 H16        -7.3064  -12.3368    7.4282 H         1 <0>         0.0000
     52 H17        -5.9179  -13.4222    7.2962 H         1 <0>         0.0000
     53 H18        -5.6557  -10.6301    8.3216 H         1 <0>         0.0000
     54 H19        -4.3271  -11.5300    7.5701 H         1 <0>         0.0000
     55 H20        -5.3549  -12.5392    5.0427 H         1 <0>         0.0000
     56 H21        -7.0334  -11.9810    4.9307 H         1 <0>         0.0000
     57 H22         5.4798   -1.7613    1.8074 H         1 <0>         0.0000
     58 H23         5.0468   -3.4731    1.9668 H         1 <0>         0.0000
     59 H24         3.2951   -1.1072    2.9221 H         1 <0>         0.0000
     60 H25         3.3531   -1.1847    4.6941 H         1 <0>         0.0000
     61 H26         1.3675   -2.3885    3.9558 H         1 <0>         0.0000
     62 H27         2.5333   -3.5545    4.6149 H         1 <0>         0.0000
     63 H28        -7.5953  -10.0073    6.6237 H         1 <0>         0.0000
     64 H29        -7.0672   -9.3394    5.1878 H         1 <0>         0.0000
     65 H30        -6.4784   -8.7668    6.6217 H         1 <0>         0.0000
@<TRIPOS>BOND
     1    1    3 ar
     2    1    2 ar
     3    1   36 1
     4    2    4 ar
     5    2   37 1
     6    3    5 ar
     7    3   38 1
     8    4   13 ar
     9    4   39 1
    10    5   13 ar
    11    5   40 1
    12    6    8 ar
    13    6   12 ar
    14    6   41 1
    15    7    9 ar
    16    7   12 ar
    17    7   42 1
    18    8   14 ar
    19    8   43 1
    20    9   14 ar
    21    9   44 1
    22   10   11 2
    23   10   17 1
    24   10   45 1
    25   11   31 1
    26   11   46 1
    27   12   15 1
    28   13   16 1
    29   14   26 1
    30   15   16 2
    31   15   29 1
    32   16   31 1
    33   17   30 2
    34   17   35 1
    35   18   29 2
    36   18   30 1
    37   18   31 1
    38   19   20 1
    39   19   32 am
    40   19   34 2
    41   20   21 1
    42   20   47 1
    43   20   48 1
    44   21   25 1
    45   21   49 1
    46   21   50 1
    47   22   24 1
    48   22   23 1
    49   22   51 1
    50   22   52 1
    51   23   26 1
    52   23   53 1
    53   23   54 1
    54   24   26 1
    55   24   55 1
    56   24   56 1
    57   25   32 1
    58   25   57 1
    59   25   58 1
    60   26   33 1
    61   27   28 1
    62   27   32 1
    63   27   59 1
    64   27   60 1
    65   28   35 1
    66   28   61 1
    67   28   62 1
    68   33   63 1
    69   33   64 1
    70   33   65 1
