@<TRIPOS>MOLECULE
*****
   27    27     0     0     0
SMALL
NO_CHARGES

@<TRIPOS>ATOM
      1 C1          0.5433   -0.7701   -0.2561 C.2       1 <0>         0.0000
      2 C2          0.8674    1.7311   -0.3872 C.2       1 <0>         0.0000
      3 C3         -0.9110   -0.9416    1.6989 C.3       1 <0>         0.0000
      4 C4          1.0117    0.4972    0.4889 C.3       1 <0>         0.0000
      5 C5         -0.8221   -1.2614    0.2041 C.3       1 <0>         0.0000
      6 C6         -1.8887   -0.8789   -2.1137 C.3       1 <0>         0.0000
      7 C7          0.3960    4.8029   -0.0766 C.3       1 <0>         0.0000
      8 C8         -1.9582   -0.5955   -0.6116 C.3       1 <0>         0.0000
      9 C9          1.5629    3.9980   -0.6284 C.3       1 <0>         0.0000
     10 O1          1.2408   -1.3049   -1.0922 O.2       1 <0>         0.0000
     11 O2          0.1079    1.8245   -1.3322 O.2       1 <0>         0.0000
     12 O3          1.6787    2.7131    0.0491 O.3       1 <0>         0.0000
     13 S1         -0.0581    0.6809    1.9777 S.3       1 <0>         0.0000
     14 H1         -1.9429   -0.8346    2.0405 H         1 <0>         0.0000
     15 H2         -0.4174   -1.7089    2.3009 H         1 <0>         0.0000
     16 H3          2.0572    0.3742    0.7785 H         1 <0>         0.0000
     17 H4         -0.8540   -2.3425    0.0358 H         1 <0>         0.0000
     18 H5         -0.9941   -0.4382   -2.5590 H         1 <0>         0.0000
     19 H6         -2.7603   -0.4497   -2.6183 H         1 <0>         0.0000
     20 H7         -1.8761   -1.9555   -2.3170 H         1 <0>         0.0000
     21 H8         -0.5535    4.3032   -0.2829 H         1 <0>         0.0000
     22 H9          0.4972    4.9415    1.0038 H         1 <0>         0.0000
     23 H10         0.3759    5.7898   -0.5514 H         1 <0>         0.0000
     24 H11        -2.9023   -0.9766   -0.2031 H         1 <0>         0.0000
     25 H12        -1.9456    0.4838   -0.4369 H         1 <0>         0.0000
     26 H13         2.5191    4.4860   -0.4317 H         1 <0>         0.0000
     27 H14         1.4582    3.8195   -1.7003 H         1 <0>         0.0000
@<TRIPOS>BOND
     1    1    4 1
     2    1    5 1
     3    1   10 2
     4    2    4 1
     5    2   11 2
     6    2   12 1
     7    3    5 1
     8    3   13 1
     9    3   14 1
    10    3   15 1
    11    4   13 1
    12    4   16 1
    13    5    8 1
    14    5   17 1
    15    6    8 1
    16    6   18 1
    17    6   19 1
    18    6   20 1
    19    7    9 1
    20    7   21 1
    21    7   22 1
    22    7   23 1
    23    8   24 1
    24    8   25 1
    25    9   12 1
    26    9   26 1
    27    9   27 1
