@<TRIPOS>MOLECULE
*****
   65    69     0     0     0
SMALL
NO_CHARGES

@<TRIPOS>ATOM
      1 C1         -6.4033   -6.6562   10.2029 C.ar      1 <0>         0.0000
      2 C2         -6.7781   -5.6537    9.2730 C.ar      1 <0>         0.0000
      3 C3          5.2980   -0.2590   -4.3453 C.ar      1 <0>         0.0000
      4 C4          6.2895   -1.1609   -3.9155 C.ar      1 <0>         0.0000
      5 C5         -5.1751   -7.2777   10.0936 C.ar      1 <0>         0.0000
      6 C6         -5.9196   -5.2926    8.2534 C.ar      1 <0>         0.0000
      7 C7          4.0639   -0.1918   -3.6949 C.ar      1 <0>         0.0000
      8 C8          1.4338   -0.6326   -1.5810 C.ar      1 <0>         0.0000
      9 C9          6.0706   -2.0173   -2.8320 C.ar      1 <0>         0.0000
     10 C10         0.5806   -1.0443   -0.5652 C.ar      1 <0>         0.0000
     11 C11        -3.0037   -7.5525    8.9071 C.ar      1 <0>         0.0000
     12 C12        -3.7446   -5.5568    7.0766 C.ar      1 <0>         0.0000
     13 C13         2.2312   -2.6639    0.2493 C.ar      1 <0>         0.0000
     14 C14        -4.2729   -6.9269    9.0543 C.ar      1 <0>         0.0000
     15 C15        -4.6498   -5.9155    8.1159 C.ar      1 <0>         0.0000
     16 C16         3.8219   -1.0359   -2.6038 C.ar      1 <0>         0.0000
     17 C17         2.7001   -1.2234   -1.7044 C.ar      1 <0>         0.0000
     18 C18         4.8314   -1.9487   -2.1893 C.ar      1 <0>         0.0000
     19 C19         3.0745   -2.2378   -0.7869 C.ar      1 <0>         0.0000
     20 C20         0.9752   -2.0527    0.3442 C.ar      1 <0>         0.0000
     21 C21        -2.1418   -7.1978    7.8980 C.ar      1 <0>         0.0000
     22 C22        -2.5134   -6.1714    6.9647 C.ar      1 <0>         0.0000
     23 C23         6.7256   -3.6433    1.7236 C.2       1 <0>         0.0000
     24 C24        -0.7135   -8.6772    6.7177 C.3       1 <0>         0.0000
     25 C25         5.8984   -2.7514    0.8127 C.3       1 <0>         0.0000
     26 C26        -0.8618   -3.5702    3.1414 C.3       1 <0>         0.0000
     27 C27        -0.6489   -4.6778    4.1787 C.3       1 <0>         0.0000
     28 C28         5.1622   -3.5521   -0.2705 C.3       1 <0>         0.0000
     29 C29         0.3451   -3.4068    2.2289 C.3       1 <0>         0.0000
     30 C30        -1.8576   -4.8308    5.0903 C.3       1 <0>         0.0000
     31 N1          4.3521   -2.6917   -1.1073 N.pl3     1 <0>         0.0000
     32 O1          6.7727   -4.8488    1.6407 O.2       1 <0>         0.0000
     33 O2          7.4423   -2.9953    2.6881 O.3       1 <0>         0.0000
     34 O3         -0.8997   -7.7858    7.8269 O.3       1 <0>         0.0000
     35 O4          0.0441   -2.3664    1.2984 O.3       1 <0>         0.0000
     36 O5         -1.5713   -5.8776    6.0195 O.3       1 <0>         0.0000
     37 H1         -7.0862   -6.9323   11.0020 H         1 <0>         0.0000
     38 H2         -7.7463   -5.1685    9.3664 H         1 <0>         0.0000
     39 H3          5.4987    0.3919   -5.1918 H         1 <0>         0.0000
     40 H4          7.2434   -1.1956   -4.4349 H         1 <0>         0.0000
     41 H5         -4.8834   -8.0466   10.8054 H         1 <0>         0.0000
     42 H6         -6.2089   -4.5223    7.5418 H         1 <0>         0.0000
     43 H7          3.3035    0.5091   -4.0302 H         1 <0>         0.0000
     44 H8          1.1166    0.1448   -2.2713 H         1 <0>         0.0000
     45 H9          6.8428   -2.7126   -2.5143 H         1 <0>         0.0000
     46 H10        -0.4049   -0.6058   -0.4430 H         1 <0>         0.0000
     47 H11        -2.6891   -8.3243    9.6047 H         1 <0>         0.0000
     48 H12        -4.0431   -4.7795    6.3817 H         1 <0>         0.0000
     49 H13         2.5391   -3.4402    0.9392 H         1 <0>         0.0000
     50 H14         0.2973   -9.0777    6.8176 H         1 <0>         0.0000
     51 H15        -0.8078   -8.1499    5.7639 H         1 <0>         0.0000
     52 H16        -1.4394   -9.4991    6.7618 H         1 <0>         0.0000
     53 H17         6.5487   -2.0040    0.3419 H         1 <0>         0.0000
     54 H18         5.1716   -2.1953    1.4179 H         1 <0>         0.0000
     55 H19        -1.7392   -3.7908    2.5225 H         1 <0>         0.0000
     56 H20        -1.0558   -2.6132    3.6395 H         1 <0>         0.0000
     57 H21         0.2303   -4.4620    4.7967 H         1 <0>         0.0000
     58 H22        -0.4605   -5.6358    3.6798 H         1 <0>         0.0000
     59 H23         4.5284   -4.3124    0.1893 H         1 <0>         0.0000
     60 H24         5.8788   -4.0900   -0.8940 H         1 <0>         0.0000
     61 H25         1.2381   -3.1422    2.8125 H         1 <0>         0.0000
     62 H26         0.5533   -4.3417    1.6901 H         1 <0>         0.0000
     63 H27        -2.7544   -5.0834    4.5080 H         1 <0>         0.0000
     64 H28        -2.0550   -3.8971    5.6341 H         1 <0>         0.0000
     65 H29         7.3022   -2.0351    2.6201 H         1 <0>         0.0000
@<TRIPOS>BOND
     1    1    2 ar
     2    1    5 ar
     3    1   37 1
     4    2    6 ar
     5    2   38 1
     6    3    4 ar
     7    3    7 ar
     8    3   39 1
     9    4    9 ar
    10    4   40 1
    11    5   14 ar
    12    5   41 1
    13    6   15 ar
    14    6   42 1
    15    7   16 ar
    16    7   43 1
    17    8   10 ar
    18    8   17 ar
    19    8   44 1
    20    9   18 ar
    21    9   45 1
    22   10   20 ar
    23   10   46 1
    24   11   14 ar
    25   11   21 ar
    26   11   47 1
    27   12   15 ar
    28   12   22 ar
    29   12   48 1
    30   13   19 ar
    31   13   20 ar
    32   13   49 1
    33   14   15 ar
    34   16   17 1
    35   16   18 ar
    36   17   19 ar
    37   18   31 1
    38   19   31 1
    39   20   35 1
    40   21   22 ar
    41   21   34 1
    42   22   36 1
    43   23   25 1
    44   23   32 2
    45   23   33 1
    46   24   34 1
    47   24   50 1
    48   24   51 1
    49   24   52 1
    50   25   28 1
    51   25   53 1
    52   25   54 1
    53   26   27 1
    54   26   29 1
    55   26   55 1
    56   26   56 1
    57   27   30 1
    58   27   57 1
    59   27   58 1
    60   28   31 1
    61   28   59 1
    62   28   60 1
    63   29   35 1
    64   29   61 1
    65   29   62 1
    66   30   36 1
    67   30   63 1
    68   30   64 1
    69   33   65 1
