@<TRIPOS>MOLECULE
*****
   36    38     0     0     0
SMALL
NO_CHARGES

@<TRIPOS>ATOM
      1 C1         -2.3550    0.6073   -4.7813 C.ar      1 <0>         0.0000
      2 C2         -1.8459    1.8282   -5.2205 C.ar      1 <0>         0.0000
      3 C3         -2.3976    0.3146   -3.4141 C.ar      1 <0>         0.0000
      4 C4         -1.4389    2.4635   -2.9114 C.ar      1 <0>         0.0000
      5 C5         -1.3902    2.7627   -4.2795 C.ar      1 <0>         0.0000
      6 C6         -1.9286    1.2316   -2.4608 C.ar      1 <0>         0.0000
      7 C7          1.2419   -1.0438   -1.3474 C.2       1 <0>         0.0000
      8 C8         -0.7774    0.1665    1.0593 C.2       1 <0>         0.0000
      9 C9          1.9256   -1.8754   -2.1375 C.2       1 <0>         0.0000
     10 C10        -0.8679    4.0623   -4.7769 C.2       1 <0>         0.0000
     11 C11         1.8104    0.1496   -0.6110 C.3       1 <0>         0.0000
     12 C12        -0.2578   -1.0904   -1.0999 C.3       1 <0>         0.0000
     13 C13         0.5815    2.0044    0.6992 C.3       1 <0>         0.0000
     14 C14         0.6459    1.1614   -0.5737 C.3       1 <0>         0.0000
     15 C15        -0.6133    0.2724   -0.4637 C.3       1 <0>         0.0000
     16 C16        -1.9371    0.9024   -0.9873 C.3       1 <0>         0.0000
     17 O1         -1.4221   -0.6505    1.6730 O.2       1 <0>         0.0000
     18 O2         -0.8149    4.3937   -5.9478 O.2       1 <0>         0.0000
     19 O3         -0.1018    1.1787    1.6770 O.3       1 <0>         0.0000
     20 O4         -0.4326    4.8836   -3.7782 O.3       1 <0>         0.0000
     21 H1         -2.7249   -0.1177   -5.5010 H         1 <0>         0.0000
     22 H2         -1.8028    2.0784   -6.2757 H         1 <0>         0.0000
     23 H3         -2.8145   -0.6335   -3.0826 H         1 <0>         0.0000
     24 H4         -1.1043    3.2088   -2.1967 H         1 <0>         0.0000
     25 H5          1.4391   -2.7020   -2.6508 H         1 <0>         0.0000
     26 H6          2.9959   -1.7612   -2.2932 H         1 <0>         0.0000
     27 H7          2.0722   -0.1433    0.4157 H         1 <0>         0.0000
     28 H8          2.7134    0.5526   -1.0768 H         1 <0>         0.0000
     29 H9         -0.7901   -1.2427   -2.0412 H         1 <0>         0.0000
     30 H10        -0.5445   -1.9062   -0.4283 H         1 <0>         0.0000
     31 H11         1.5603    2.2551    1.1140 H         1 <0>         0.0000
     32 H12         0.0032    2.9252    0.5677 H         1 <0>         0.0000
     33 H13         0.6508    1.7784   -1.4740 H         1 <0>         0.0000
     34 H14        -2.1478    1.8128   -0.4147 H         1 <0>         0.0000
     35 H15        -2.7438    0.1991   -0.7586 H         1 <0>         0.0000
     36 H16        -0.1224    5.6965   -4.2209 H         1 <0>         0.0000
@<TRIPOS>BOND
     1    1    2 ar
     2    1    3 ar
     3    1   21 1
     4    2    5 ar
     5    2   22 1
     6    3    6 ar
     7    3   23 1
     8    4    5 ar
     9    4    6 ar
    10    4   24 1
    11    5   10 1
    12    6   16 1
    13    7    9 2
    14    7   11 1
    15    7   12 1
    16    8   15 1
    17    8   17 2
    18    8   19 1
    19    9   25 1
    20    9   26 1
    21   10   18 2
    22   10   20 1
    23   11   14 1
    24   11   27 1
    25   11   28 1
    26   12   15 1
    27   12   29 1
    28   12   30 1
    29   13   14 1
    30   13   19 1
    31   13   31 1
    32   13   32 1
    33   14   15 1
    34   14   33 1
    35   15   16 1
    36   16   34 1
    37   16   35 1
    38   20   36 1
