@<TRIPOS>MOLECULE
*****
   20    21     0     0     0
SMALL
NO_CHARGES

@<TRIPOS>ATOM
      1 C1          1.9385   -0.8281   -0.0634 C.ar      1 <0>         0.0000
      2 C2          0.8282   -0.4047    0.6644 C.ar      1 <0>         0.0000
      3 C3          2.9888   -1.4934    0.5795 C.ar      1 <0>         0.0000
      4 C4          0.7053    1.7519    5.6666 C.2       1 <0>         0.0000
      5 C5         -0.5906    1.8088    6.1297 C.2       1 <0>         0.0000
      6 C6          0.7551   -0.6143    2.0513 C.ar      1 <0>         0.0000
      7 C7          2.9036   -1.7263    1.9462 C.ar      1 <0>         0.0000
      8 C8          1.8008   -1.2926    2.6821 C.ar      1 <0>         0.0000
      9 C9         -0.2694    0.6127    4.0474 C.2       1 <0>         0.0000
     10 C10        -0.4605   -0.1225    2.7756 C.2       1 <0>         0.0000
     11 N1          0.8754    1.0746    4.4916 N.2       1 <0>         0.0000
     12 O1         -1.5831   -0.2649    2.3015 O.2       1 <0>         0.0000
     13 F1          3.8885   -2.3938    2.5833 F         1 <0>         0.0000
     14 F2          1.7460   -1.6013    3.9897 F         1 <0>         0.0000
     15 S1         -1.6552    0.9932    5.0498 S.3       1 <0>         0.0000
     16 H1          1.9909   -0.6470   -1.1325 H         1 <0>         0.0000
     17 H2          0.0018    0.1017    0.1762 H         1 <0>         0.0000
     18 H3          3.8633   -1.8438    0.0396 H         1 <0>         0.0000
     19 H4          1.5634    2.1948    6.1603 H         1 <0>         0.0000
     20 H5         -0.9548    2.2799    7.0339 H         1 <0>         0.0000
@<TRIPOS>BOND
     1    1    2 ar
     2    1    3 ar
     3    1   16 1
     4    2    6 ar
     5    2   17 1
     6    3    7 ar
     7    3   18 1
     8    4    5 2
     9    4   11 1
    10    4   19 1
    11    5   15 1
    12    5   20 1
    13    6    8 ar
    14    6   10 1
    15    7    8 ar
    16    7   13 1
    17    8   14 1
    18    9   10 1
    19    9   11 2
    20    9   15 1
    21   10   12 2
