@<TRIPOS>MOLECULE
*****
   21    22     0     0     0
SMALL
NO_CHARGES

@<TRIPOS>ATOM
      1 C1          1.3762   -1.3902   -0.0815 C.ar      1 <0>         0.0000
      2 C2          0.5842   -0.4445    0.5685 C.ar      1 <0>         0.0000
      3 C3          1.9633   -0.6972    2.5584 C.ar      1 <0>         0.0000
      4 C4          2.4542   -2.0253    0.5570 C.ar      1 <0>         0.0000
      5 C5          2.7174   -1.6530    1.8834 C.ar      1 <0>         0.0000
      6 C6          0.8929   -0.1059    1.8878 C.ar      1 <0>         0.0000
      7 C7          3.2395   -3.0997   -0.1367 C.2       1 <0>         0.0000
      8 C8          3.2459   -4.2052   -2.4671 C.3       1 <0>         0.0000
      9 C9          4.6286   -3.7010   -2.2158 C.3       1 <0>         0.0000
     10 C10         3.4492   -2.9519   -1.6072 C.3       1 <0>         0.0000
     11 O1          3.6659   -4.0702    0.4788 O.2       1 <0>         0.0000
     12 F1          3.7568   -2.1946    2.5438 F         1 <0>         0.0000
     13 Br1        -0.1668    1.1996    2.7982 Br        1 <0>         0.0000
     14 H1          1.1321   -1.6642   -1.1034 H         1 <0>         0.0000
     15 H2         -0.2547    0.0197    0.0615 H         1 <0>         0.0000
     16 H3          2.2202   -0.4340    3.5786 H         1 <0>         0.0000
     17 H4          2.7994   -4.0581   -3.4458 H         1 <0>         0.0000
     18 H5          2.9302   -5.0944   -1.9309 H         1 <0>         0.0000
     19 H6          5.2424   -4.2523   -1.5112 H         1 <0>         0.0000
     20 H7          5.1559   -3.1993   -3.0211 H         1 <0>         0.0000
     21 H8          3.1892   -1.9989   -2.0542 H         1 <0>         0.0000
@<TRIPOS>BOND
     1    1    2 ar
     2    1    4 ar
     3    1   14 1
     4    2    6 ar
     5    2   15 1
     6    3    5 ar
     7    3    6 ar
     8    3   16 1
     9    4    5 ar
    10    4    7 1
    11    5   12 1
    12    6   13 1
    13    7   10 1
    14    7   11 2
    15    8    9 1
    16    8   10 1
    17    8   17 1
    18    8   18 1
    19    9   10 1
    20    9   19 1
    21    9   20 1
    22   10   21 1
