@<TRIPOS>MOLECULE
*****
   16    16     0     0     0
SMALL
NO_CHARGES

@<TRIPOS>ATOM
      1 C1          1.3993   -0.0605    1.6515 C.ar      1 <0>         0.0000
      2 C2          1.6687   -0.6111    2.8988 C.ar      1 <0>         0.0000
      3 C3          0.2263   -0.4333    0.9954 C.ar      1 <0>         0.0000
      4 C4         -0.6433   -1.3398    1.5957 C.ar      1 <0>         0.0000
      5 C5          0.7367   -1.5163    3.4274 C.ar      1 <0>         0.0000
      6 C6         -1.9344   -1.7933    0.9498 C.2       1 <0>         0.0000
      7 N1         -0.3737   -1.8664    2.8018 N.ar      1 <0>         0.0000
      8 N2         -0.0337    0.1675   -0.3289 N.pl3     1 <0>         0.0000
      9 O1          0.4356   -0.4243   -1.2981 O.3       1 <0>         0.0000
     10 O2         -2.2922   -1.3929   -0.1340 O.2       1 <0>         0.0000
     11 O3         -0.6294    1.2423   -0.3342 O.2       1 <0>         0.0000
     12 O4         -2.6334   -2.6706    1.6870 O.3       1 <0>         0.0000
     13 Cl1         1.0320   -2.2333    4.9895 Cl        1 <0>         0.0000
     14 H1          2.0842    0.6460    1.1920 H         1 <0>         0.0000
     15 H2          2.5661   -0.3546    3.4503 H         1 <0>         0.0000
     16 H3         -2.1325   -2.8310    2.5168 H         1 <0>         0.0000
@<TRIPOS>BOND
     1    1    2 ar
     2    1    3 ar
     3    1   14 1
     4    2    5 ar
     5    2   15 1
     6    3    4 ar
     7    3    8 1
     8    4    6 1
     9    4    7 ar
    10    5    7 ar
    11    5   13 1
    12    6   10 2
    13    6   12 1
    14    8    9 1
    15    8   11 2
    16   12   16 1
