@<TRIPOS>MOLECULE
*****
   65    70     0     0     0
SMALL
NO_CHARGES

@<TRIPOS>ATOM
      1 C1         -1.5321  -10.4634   -1.0288 C.ar      1 <0>         0.0000
      2 C2         -1.7266   -9.0874   -1.1911 C.ar      1 <0>         0.0000
      3 C3         -1.1195  -10.9659    0.2106 C.ar      1 <0>         0.0000
      4 C4         -1.5149   -8.2184   -0.1176 C.ar      1 <0>         0.0000
      5 C5         -0.8990  -10.0976    1.2820 C.ar      1 <0>         0.0000
      6 C6         -2.7324   -8.3491    5.5255 C.ar      1 <0>         0.0000
      7 C7         -3.4428   -9.2065    3.3742 C.ar      1 <0>         0.0000
      8 C8         -3.7751   -9.0314    6.1430 C.ar      1 <0>         0.0000
      9 C9         -4.4886   -9.8864    3.9943 C.ar      1 <0>         0.0000
     10 C10         1.9349   -5.5029    1.5500 C.2       1 <0>         0.0000
     11 C11         1.0504   -6.4985    1.2765 C.2       1 <0>         0.0000
     12 C12        -2.5428   -8.4285    4.1297 C.ar      1 <0>         0.0000
     13 C13        -1.1014   -8.7148    1.1314 C.ar      1 <0>         0.0000
     14 C14        -4.6654   -9.8103    5.3849 C.ar      1 <0>         0.0000
     15 C15        -1.4323   -7.6812    3.5335 C.2       1 <0>         0.0000
     16 C16        -0.8708   -7.8024    2.2638 C.2       1 <0>         0.0000
     17 C17         1.8516   -4.8570    2.8340 C.2       1 <0>         0.0000
     18 C18         0.1158   -6.1741    3.4875 C.2       1 <0>         0.0000
     19 C19         4.5214   -1.3500    2.0667 C.2       1 <0>         0.0000
     20 C20         4.0198   -0.2497    1.1345 C.3       1 <0>         0.0000
     21 C21         3.2062    0.6831    2.0456 C.3       1 <0>         0.0000
     22 C22        -6.6905  -12.2306    7.0062 C.3       1 <0>         0.0000
     23 C23        -5.7459  -11.0832    7.4656 C.3       1 <0>         0.0000
     24 C24        -6.4282  -11.8105    5.5314 C.3       1 <0>         0.0000
     25 C25         2.7649   -0.2322    3.2062 C.3       1 <0>         0.0000
     26 C26        -5.8343  -10.4709    6.0419 C.3       1 <0>         0.0000
     27 C27         3.9196   -2.2372    4.2925 C.3       1 <0>         0.0000
     28 C28         2.7552   -3.2204    4.3150 C.3       1 <0>         0.0000
     29 N1         -0.8175   -6.6869    4.2705 N.2       1 <0>         0.0000
     30 N2          0.9843   -5.1767    3.7661 N.2       1 <0>         0.0000
     31 N3          0.1217   -6.8275    2.2335 N.pl3     1 <0>         0.0000
     32 N4          3.8171   -1.2430    3.2465 N.am      1 <0>         0.0000
     33 N5         -6.9827   -9.4099    6.0501 N.4       1 <0>         0.0000
     34 O1          5.3799   -2.1895    1.8240 O.2       1 <0>         0.0000
     35 O2          2.7480   -3.8837    3.0323 O.3       1 <0>         0.0000
     36 H1         -1.6952  -11.1387   -1.8641 H         1 <0>         0.0000
     37 H2         -2.0474   -8.6918   -2.1509 H         1 <0>         0.0000
     38 H3         -0.9552  -12.0325    0.3380 H         1 <0>         0.0000
     39 H4         -1.6874   -7.1518   -0.2404 H         1 <0>         0.0000
     40 H5         -0.5647  -10.4839    2.2411 H         1 <0>         0.0000
     41 H6         -2.0428   -7.7436    6.1036 H         1 <0>         0.0000
     42 H7         -3.3308   -9.2763    2.2987 H         1 <0>         0.0000
     43 H8         -3.8828   -8.9720    7.2248 H         1 <0>         0.0000
     44 H9         -5.1616  -10.4892    3.3875 H         1 <0>         0.0000
     45 H10         2.6953   -5.2015    0.8401 H         1 <0>         0.0000
     46 H11         1.0305   -7.0607    0.3499 H         1 <0>         0.0000
     47 H12         4.8580    0.2310    0.6272 H         1 <0>         0.0000
     48 H13         3.3976   -0.7239    0.3664 H         1 <0>         0.0000
     49 H14         3.8478    1.4789    2.4345 H         1 <0>         0.0000
     50 H15         2.3550    1.1504    1.5456 H         1 <0>         0.0000
     51 H16        -7.7295  -12.0872    7.3187 H         1 <0>         0.0000
     52 H17        -6.3925  -13.2424    7.2816 H         1 <0>         0.0000
     53 H18        -6.0551  -10.4597    8.3106 H         1 <0>         0.0000
     54 H19        -4.7285  -11.4314    7.6504 H         1 <0>         0.0000
     55 H20        -5.6407  -12.4049    5.0654 H         1 <0>         0.0000
     56 H21        -7.2781  -11.7640    4.8430 H         1 <0>         0.0000
     57 H22         2.6997    0.2978    4.1628 H         1 <0>         0.0000
     58 H23         1.7840   -0.6889    3.0069 H         1 <0>         0.0000
     59 H24         3.9710   -1.7459    5.2724 H         1 <0>         0.0000
     60 H25         4.8541   -2.7781    4.1267 H         1 <0>         0.0000
     61 H26         1.7900   -2.7282    4.4670 H         1 <0>         0.0000
     62 H27         2.8861   -3.9602    5.1102 H         1 <0>         0.0000
     63 H28        -7.8481   -9.7526    6.4875 H         1 <0>         0.0000
     64 H29        -7.1942   -9.1225    5.0867 H         1 <0>         0.0000
     65 H30        -6.6717   -8.5700    6.5537 H         1 <0>         0.0000
@<TRIPOS>BOND
     1    1    3 ar
     2    1    2 ar
     3    1   36 1
     4    2    4 ar
     5    2   37 1
     6    3    5 ar
     7    3   38 1
     8    4   13 ar
     9    4   39 1
    10    5   13 ar
    11    5   40 1
    12    6    8 ar
    13    6   12 ar
    14    6   41 1
    15    7    9 ar
    16    7   12 ar
    17    7   42 1
    18    8   14 ar
    19    8   43 1
    20    9   14 ar
    21    9   44 1
    22   10   11 2
    23   10   17 1
    24   10   45 1
    25   11   31 1
    26   11   46 1
    27   12   15 1
    28   13   16 1
    29   14   26 1
    30   15   16 2
    31   15   29 1
    32   16   31 1
    33   17   30 2
    34   17   35 1
    35   18   29 2
    36   18   30 1
    37   18   31 1
    38   19   20 1
    39   19   32 am
    40   19   34 2
    41   20   21 1
    42   20   47 1
    43   20   48 1
    44   21   25 1
    45   21   49 1
    46   21   50 1
    47   22   24 1
    48   22   23 1
    49   22   51 1
    50   22   52 1
    51   23   26 1
    52   23   53 1
    53   23   54 1
    54   24   26 1
    55   24   55 1
    56   24   56 1
    57   25   32 1
    58   25   57 1
    59   25   58 1
    60   26   33 1
    61   27   28 1
    62   27   32 1
    63   27   59 1
    64   27   60 1
    65   28   35 1
    66   28   61 1
    67   28   62 1
    68   33   63 1
    69   33   64 1
    70   33   65 1
