@<TRIPOS>MOLECULE
*****
   64    69     0     0     0
SMALL
NO_CHARGES

@<TRIPOS>ATOM
      1 C1          1.5914   -3.1873   -8.7847 C.ar      1 <0>         0.0000
      2 C2          1.2263   -2.4217   -7.6724 C.ar      1 <0>         0.0000
      3 C3          1.7992   -4.5639   -8.6387 C.ar      1 <0>         0.0000
      4 C4          1.0668   -3.0294   -6.4244 C.ar      1 <0>         0.0000
      5 C5          1.6529   -5.1695   -7.3901 C.ar      1 <0>         0.0000
      6 C6         -0.7903   -8.3206   -4.8561 C.ar      1 <0>         0.0000
      7 C7         -1.2224   -6.5389   -6.4269 C.ar      1 <0>         0.0000
      8 C8         -1.6739   -9.1456   -5.5561 C.ar      1 <0>         0.0000
      9 C9         -2.0960   -7.3693   -7.1226 C.ar      1 <0>         0.0000
     10 C10         3.2936   -3.4884   -2.3988 C.2       1 <0>         0.0000
     11 C11         2.7404   -3.6409   -3.6367 C.2       1 <0>         0.0000
     12 C12        -0.5442   -7.0068   -5.2845 C.ar      1 <0>         0.0000
     13 C13         1.2792   -4.4111   -6.2661 C.ar      1 <0>         0.0000
     14 C14        -2.3399   -8.6854   -6.6978 C.ar      1 <0>         0.0000
     15 C15         0.3915   -6.1671   -4.5219 C.2       1 <0>         0.0000
     16 C16         1.1173   -5.0587   -4.9568 C.2       1 <0>         0.0000
     17 C17         2.8798   -4.3924   -1.3661 C.2       1 <0>         0.0000
     18 C18         1.4857   -5.5174   -2.7725 C.2       1 <0>         0.0000
     19 C19         4.2044   -2.1569    2.3844 C.2       1 <0>         0.0000
     20 C20         3.3834   -0.8889    2.6106 C.3       1 <0>         0.0000
     21 C21         2.0697   -1.3908    3.2298 C.3       1 <0>         0.0000
     22 C22        -5.2803  -10.4572   -7.4331 C.3       1 <0>         0.0000
     23 C23        -4.7424   -9.0255   -7.7026 C.3       1 <0>         0.0000
     24 C24        -3.9100  -10.8148   -6.7935 C.3       1 <0>         0.0000
     25 C25         1.9598   -2.8415    2.7192 C.3       1 <0>         0.0000
     26 C26        -3.2871   -9.5559   -7.4930 C.3       1 <0>         0.0000
     27 C27         3.7507   -4.5774    2.1716 C.3       1 <0>         0.0000
     28 C28         3.0802   -5.0865    0.9018 C.3       1 <0>         0.0000
     29 N1          0.6328   -6.4356   -3.1876 N.2       1 <0>         0.0000
     30 N2          2.0233   -5.3698   -1.5398 N.2       1 <0>         0.0000
     31 N3          1.8170   -4.6315   -3.8269 N.pl3     1 <0>         0.0000
     32 N4          3.3537   -3.2295    2.5254 N.am      1 <0>         0.0000
     33 N5         -2.6703   -9.8155   -8.8073 N.3       1 <0>         0.0000
     34 O1          5.3988   -2.2205    2.1159 O.2       1 <0>         0.0000
     35 O2          3.4433   -4.1827   -0.1577 O.3       1 <0>         0.0000
     36 H1          1.7097   -2.7164   -9.7570 H         1 <0>         0.0000
     37 H2          1.0520   -1.3540   -7.7787 H         1 <0>         0.0000
     38 H3          2.0815   -5.1661   -9.4984 H         1 <0>         0.0000
     39 H4          0.7452   -2.4351   -5.5723 H         1 <0>         0.0000
     40 H5          1.8163   -6.2371   -7.2767 H         1 <0>         0.0000
     41 H6         -0.2844   -8.6813   -3.9661 H         1 <0>         0.0000
     42 H7         -1.0761   -5.5186   -6.7651 H         1 <0>         0.0000
     43 H8         -1.8404  -10.1596   -5.2026 H         1 <0>         0.0000
     44 H9         -2.6011   -6.9991   -8.0108 H         1 <0>         0.0000
     45 H10         4.0306   -2.7219   -2.1941 H         1 <0>         0.0000
     46 H11         2.9929   -3.0251   -4.4921 H         1 <0>         0.0000
     47 H12         3.9363   -0.1810    3.2308 H         1 <0>         0.0000
     48 H13         3.2255   -0.4197    1.6325 H         1 <0>         0.0000
     49 H14         2.1470   -1.3928    4.3212 H         1 <0>         0.0000
     50 H15         1.1982   -0.7927    2.9539 H         1 <0>         0.0000
     51 H16        -5.4759  -11.0126   -8.3557 H         1 <0>         0.0000
     52 H17        -6.1594  -10.5437   -6.7894 H         1 <0>         0.0000
     53 H18        -4.9417   -8.5750   -8.6795 H         1 <0>         0.0000
     54 H19        -5.0303   -8.3225   -6.9167 H         1 <0>         0.0000
     55 H20        -3.9474  -10.7136   -5.7054 H         1 <0>         0.0000
     56 H21        -3.4624  -11.7819   -7.0449 H         1 <0>         0.0000
     57 H22         1.4672   -3.5079    3.4359 H         1 <0>         0.0000
     58 H23         1.4015   -2.8922    1.7734 H         1 <0>         0.0000
     59 H24         3.5044   -5.2700    2.9875 H         1 <0>         0.0000
     60 H25         4.8357   -4.5626    2.0469 H         1 <0>         0.0000
     61 H26         1.9909   -5.1244    0.9910 H         1 <0>         0.0000
     62 H27         3.4270   -6.0968    0.6618 H         1 <0>         0.0000
     63 H28        -3.2708  -10.4315   -9.3564 H         1 <0>         0.0000
     64 H29        -1.7895  -10.3119   -8.6706 H         1 <0>         0.0000
@<TRIPOS>BOND
     1    1    3 ar
     2    1    2 ar
     3    1   36 1
     4    2    4 ar
     5    2   37 1
     6    3    5 ar
     7    3   38 1
     8    4   13 ar
     9    4   39 1
    10    5   13 ar
    11    5   40 1
    12    6    8 ar
    13    6   12 ar
    14    6   41 1
    15    7    9 ar
    16    7   12 ar
    17    7   42 1
    18    8   14 ar
    19    8   43 1
    20    9   14 ar
    21    9   44 1
    22   10   11 2
    23   10   17 1
    24   10   45 1
    25   11   31 1
    26   11   46 1
    27   12   15 1
    28   13   16 1
    29   14   26 1
    30   15   16 2
    31   15   29 1
    32   16   31 1
    33   17   30 2
    34   17   35 1
    35   18   29 2
    36   18   30 1
    37   18   31 1
    38   19   20 1
    39   19   32 am
    40   19   34 2
    41   20   21 1
    42   20   47 1
    43   20   48 1
    44   21   25 1
    45   21   49 1
    46   21   50 1
    47   22   24 1
    48   22   23 1
    49   22   51 1
    50   22   52 1
    51   23   26 1
    52   23   53 1
    53   23   54 1
    54   24   26 1
    55   24   55 1
    56   24   56 1
    57   25   32 1
    58   25   57 1
    59   25   58 1
    60   26   33 1
    61   27   28 1
    62   27   32 1
    63   27   59 1
    64   27   60 1
    65   28   35 1
    66   28   61 1
    67   28   62 1
    68   33   63 1
    69   33   64 1
