@<TRIPOS>MOLECULE
*****
   34    34     0     0     0
SMALL
NO_CHARGES

@<TRIPOS>ATOM
      1 C1          2.2852   -1.0153    0.1512 C.ar      1 <0>         0.0000
      2 C2          1.4706   -0.1611    0.9034 C.ar      1 <0>         0.0000
      3 C3          3.1922   -1.9299    2.1761 C.ar      1 <0>         0.0000
      4 C4          3.1560   -1.9168    0.7732 C.ar      1 <0>         0.0000
      5 C5          1.5058   -0.1900    2.3026 C.ar      1 <0>         0.0000
      6 C6          2.3881   -1.0871    2.9411 C.ar      1 <0>         0.0000
      7 C7         -2.0269    3.1470    3.0697 C.3       1 <0>         0.0000
      8 C8          2.9988   -0.0585    4.9898 C.3       1 <0>         0.0000
      9 C9          4.0187   -2.8742   -0.0202 C.3       1 <0>         0.0000
     10 C10        -0.9692    2.1866    3.6245 C.3       1 <0>         0.0000
     11 C11         3.2321   -3.9917   -0.7302 C.3       1 <0>         0.0000
     12 C12        -0.2190    1.4674    2.5127 C.3       1 <0>         0.0000
     13 N1          2.4987   -3.4683   -1.8955 N.3       1 <0>         0.0000
     14 O1          2.4362   -1.1921    4.3167 O.3       1 <0>         0.0000
     15 O2          0.7340    0.5938    3.1208 O.3       1 <0>         0.0000
     16 H1          2.2202   -0.9989   -0.9314 H         1 <0>         0.0000
     17 H2          0.8014    0.5174    0.3861 H         1 <0>         0.0000
     18 H3          3.8512   -2.6108    2.7101 H         1 <0>         0.0000
     19 H4         -1.5745    3.9173    2.4345 H         1 <0>         0.0000
     20 H5         -2.7731    2.6153    2.4682 H         1 <0>         0.0000
     21 H6         -2.5566    3.6556    3.8811 H         1 <0>         0.0000
     22 H7          3.0118   -0.3115    6.0524 H         1 <0>         0.0000
     23 H8          2.3929    0.8387    4.8324 H         1 <0>         0.0000
     24 H9          4.0254    0.1227    4.6454 H         1 <0>         0.0000
     25 H10         4.7462   -3.3422    0.6521 H         1 <0>         0.0000
     26 H11         4.6027   -2.3287   -0.7738 H         1 <0>         0.0000
     27 H12        -1.4368    1.4377    4.2731 H         1 <0>         0.0000
     28 H13        -0.2465    2.7334    4.2408 H         1 <0>         0.0000
     29 H14         3.9323   -4.8030   -0.9917 H         1 <0>         0.0000
     30 H15         2.5011   -4.4104   -0.0305 H         1 <0>         0.0000
     31 H16        -0.9136    0.8854    1.8910 H         1 <0>         0.0000
     32 H17         0.2945    2.1905    1.8632 H         1 <0>         0.0000
     33 H18         1.8651   -4.1807   -2.2536 H         1 <0>         0.0000
     34 H19         3.1587   -3.2671   -2.6461 H         1 <0>         0.0000
@<TRIPOS>BOND
     1    1    2 ar
     2    1    4 ar
     3    1   16 1
     4    2    5 ar
     5    2   17 1
     6    3    4 ar
     7    3    6 ar
     8    3   18 1
     9    4    9 1
    10    5    6 ar
    11    5   15 1
    12    6   14 1
    13    7   10 1
    14    7   19 1
    15    7   20 1
    16    7   21 1
    17    8   14 1
    18    8   22 1
    19    8   23 1
    20    8   24 1
    21    9   11 1
    22    9   25 1
    23    9   26 1
    24   10   12 1
    25   10   27 1
    26   10   28 1
    27   11   13 1
    28   11   29 1
    29   11   30 1
    30   12   15 1
    31   12   31 1
    32   12   32 1
    33   13   33 1
    34   13   34 1
