@<TRIPOS>MOLECULE
*****
   20    21     0     0     0
SMALL
NO_CHARGES

@<TRIPOS>ATOM
      1 C1          1.8860   -1.0362   -0.1507 C.ar      1 <0>         0.0000
      2 C2          3.0180   -1.4134    0.5811 C.ar      1 <0>         0.0000
      3 C3          0.7108   -0.6802    0.5213 C.ar      1 <0>         0.0000
      4 C4          2.9772   -1.4353    1.9757 C.ar      1 <0>         0.0000
      5 C5          0.6667   -0.7009    1.9158 C.ar      1 <0>         0.0000
      6 C6          1.6705   -1.1422    6.8361 C.ar      1 <0>         0.0000
      7 C7          2.8211   -1.4897    6.1258 C.ar      1 <0>         0.0000
      8 C8          0.5657   -0.7722    6.0670 C.ar      1 <0>         0.0000
      9 C9          1.8001   -1.0789    2.6562 C.ar      1 <0>         0.0000
     10 C10         1.7545   -1.1014    4.1391 C.ar      1 <0>         0.0000
     11 N1          2.8744   -1.4733    4.7919 N.ar      1 <0>         0.0000
     12 N2          0.5959   -0.7484    4.7324 N.ar      1 <0>         0.0000
     13 H1          1.9193   -1.0197   -1.2372 H         1 <0>         0.0000
     14 H2          3.9326   -1.6906    0.0631 H         1 <0>         0.0000
     15 H3         -0.1707   -0.3865   -0.0430 H         1 <0>         0.0000
     16 H4          3.8482   -1.7259    2.5529 H         1 <0>         0.0000
     17 H5         -0.2382   -0.4271    2.4472 H         1 <0>         0.0000
     18 H6          1.6370   -1.1586    7.9207 H         1 <0>         0.0000
     19 H7          3.7314   -1.7917    6.6429 H         1 <0>         0.0000
     20 H8         -0.3753   -0.4851    6.5356 H         1 <0>         0.0000
@<TRIPOS>BOND
     1    1    3 ar
     2    1    2 ar
     3    1   13 1
     4    2    4 ar
     5    2   14 1
     6    3    5 ar
     7    3   15 1
     8    4    9 ar
     9    4   16 1
    10    5    9 ar
    11    5   17 1
    12    6    8 ar
    13    6    7 ar
    14    6   18 1
    15    7   11 ar
    16    7   19 1
    17    8   12 ar
    18    8   20 1
    19    9   10 1
    20   10   12 ar
    21   10   11 ar
