@<TRIPOS>MOLECULE
*****
   25    25     0     0     0
SMALL
NO_CHARGES

@<TRIPOS>ATOM
      1 C1          1.2392    0.5898    2.2249 C.2       1 <0>         0.0000
      2 C2          1.0373   -0.6018    1.6226 C.2       1 <0>         0.0000
      3 C3          3.3644   -0.7072    1.8737 C.2       1 <0>         0.0000
      4 C4         -0.2141   -1.6263   -0.3030 C.2       1 <0>         0.0000
      5 C5          0.9085   -3.1057   -1.8012 C.3       1 <0>         0.0000
      6 C6          6.4835   -2.1962    0.2802 C.3       1 <0>         0.0000
      7 C7         -0.2653   -1.1928    1.1592 C.3       1 <0>         0.0000
      8 N1          4.6098   -1.0926    1.7907 N.2       1 <0>         0.0000
      9 N2          2.2190   -1.3244    1.4566 N.pl3     1 <0>         0.0000
     10 O1         -0.8439   -1.1230   -1.2076 O.2       1 <0>         0.0000
     11 O2          5.2528   -3.5517    2.2049 O.2       1 <0>         0.0000
     12 O3          3.9422   -2.9733    0.1206 O.2       1 <0>         0.0000
     13 O4          0.6545   -2.6527   -0.4490 O.3       1 <0>         0.0000
     14 S1          2.9405    0.8479    2.6003 S.3       1 <0>         0.0000
     15 S2          4.9559   -2.5885    1.1395 S.o2      1 <0>         0.0000
     16 H1          0.4946    1.3294    2.4833 H         1 <0>         0.0000
     17 H2          1.7250   -3.8198   -1.7104 H         1 <0>         0.0000
     18 H3          1.1999   -2.2612   -2.4282 H         1 <0>         0.0000
     19 H4          0.0109   -3.5753   -2.2086 H         1 <0>         0.0000
     20 H5          6.8407   -3.1286   -0.1600 H         1 <0>         0.0000
     21 H6          6.2707   -1.4545   -0.4896 H         1 <0>         0.0000
     22 H7          7.1939   -1.8144    1.0133 H         1 <0>         0.0000
     23 H8         -1.0617   -0.4581    1.2697 H         1 <0>         0.0000
     24 H9         -0.5064   -2.0724    1.7678 H         1 <0>         0.0000
     25 H10         2.2832   -2.1609    0.8706 H         1 <0>         0.0000
@<TRIPOS>BOND
     1    1    2 2
     2    1   14 1
     3    1   16 1
     4    2    7 1
     5    2    9 1
     6    3    8 2
     7    3    9 1
     8    3   14 1
     9    4    7 1
    10    4   10 2
    11    4   13 1
    12    5   13 1
    13    5   17 1
    14    5   18 1
    15    5   19 1
    16    6   15 1
    17    6   20 1
    18    6   21 1
    19    6   22 1
    20    7   23 1
    21    7   24 1
    22    8   15 1
    23    9   25 1
    24   11   15 2
    25   12   15 2
