@<TRIPOS>MOLECULE
*****
   56    59     0     0     0
SMALL
NO_CHARGES

@<TRIPOS>ATOM
      1 C1         -0.0003    2.2232    2.7863 C.ar      1 <0>         0.0000
      2 C2         -0.0888    2.2315    1.3698 C.ar      1 <0>         0.0000
      3 C3          0.1485    1.0488    3.5276 C.ar      1 <0>         0.0000
      4 C4          0.1041   -0.1441    1.4061 C.ar      1 <0>         0.0000
      5 C5         -0.0299    1.0353    0.6653 C.ar      1 <0>         0.0000
      6 C6          0.1742   -1.4864    0.9229 C.2       1 <0>         0.0000
      7 C7          0.1930   -0.1571    2.8120 C.ar      1 <0>         0.0000
      8 C8          0.3014   -2.2927    2.0372 C.2       1 <0>         0.0000
      9 C9          0.0155   -1.7530   -0.5558 C.3       1 <0>         0.0000
     10 C10        -0.5111    1.9141   -1.7446 C.3       1 <0>         0.0000
     11 C11        -0.0205    0.0900   -3.4538 C.3       1 <0>         0.0000
     12 C12         0.0015    0.8024   -0.8327 C.3       1 <0>         0.0000
     13 C13        -0.1239    1.6084   -3.2180 C.3       1 <0>         0.0000
     14 C14        -0.7468   -0.5323   -1.1150 C.3       1 <0>         0.0000
     15 C15        -2.6140   -3.3990   -4.8403 C.3       1 <0>         0.0000
     16 C16         1.1037   -5.4671    3.6811 C.3       1 <0>         0.0000
     17 C17         0.6479    2.8351   -6.2901 C.3       1 <0>         0.0000
     18 C18         0.3676   -3.7813    2.1890 C.3       1 <0>         0.0000
     19 C19         1.2016    2.2877   -3.5972 C.3       1 <0>         0.0000
     20 C20        -2.2058   -1.9782   -4.4285 C.3       1 <0>         0.0000
     21 C21        -1.4187   -2.0018   -3.1195 C.3       1 <0>         0.0000
     22 N1          0.3031   -1.4907    3.1723 N.pl3     1 <0>         0.0000
     23 N2         -1.0685   -0.6161   -2.6244 N.4       1 <0>         0.0000
     24 O1          1.0618   -4.0716    3.3907 O.3       1 <0>         0.0000
     25 S1          1.8295    1.8873   -5.2684 S.3       1 <0>         0.0000
     26 H1         -0.0447    3.1710    3.3147 H         1 <0>         0.0000
     27 H2         -0.1923    3.1845    0.8584 H         1 <0>         0.0000
     28 H3          0.2200    1.0830    4.6110 H         1 <0>         0.0000
     29 H4          0.9863   -1.8513   -1.0613 H         1 <0>         0.0000
     30 H5         -0.5378   -2.6792   -0.7291 H         1 <0>         0.0000
     31 H6         -1.5966    2.0307   -1.6294 H         1 <0>         0.0000
     32 H7         -0.0773    2.8726   -1.4490 H         1 <0>         0.0000
     33 H8         -0.1769   -0.1635   -4.4987 H         1 <0>         0.0000
     34 H9          0.9466   -0.3176   -3.1554 H         1 <0>         0.0000
     35 H10         1.0571    0.6335   -1.0874 H         1 <0>         0.0000
     36 H11        -0.9076    1.9980   -3.8778 H         1 <0>         0.0000
     37 H12        -1.7302   -0.4932   -0.6368 H         1 <0>         0.0000
     38 H13        -1.7363   -4.0327   -5.0016 H         1 <0>         0.0000
     39 H14        -3.2409   -3.8720   -4.0777 H         1 <0>         0.0000
     40 H15        -3.1830   -3.3746   -5.7726 H         1 <0>         0.0000
     41 H16         1.6495   -5.5789    4.6189 H         1 <0>         0.0000
     42 H17         1.6281   -6.0190    2.8892 H         1 <0>         0.0000
     43 H18         0.0912   -5.8783    3.7971 H         1 <0>         0.0000
     44 H19         0.9791    2.7331   -7.3257 H         1 <0>         0.0000
     45 H20         0.6678    3.8938   -6.0193 H         1 <0>         0.0000
     46 H21        -0.3727    2.4504   -6.2129 H         1 <0>         0.0000
     47 H22        -0.6496   -4.2078    2.2318 H         1 <0>         0.0000
     48 H23         0.8758   -4.2265    1.3200 H         1 <0>         0.0000
     49 H24         1.9949    1.9783   -2.9078 H         1 <0>         0.0000
     50 H25         1.0985    3.3731   -3.5027 H         1 <0>         0.0000
     51 H26        -3.1053   -1.3613   -4.3006 H         1 <0>         0.0000
     52 H27        -1.6158   -1.5249   -5.2305 H         1 <0>         0.0000
     53 H28        -2.0188   -2.4689   -2.3361 H         1 <0>         0.0000
     54 H29        -0.4831   -2.5559   -3.2142 H         1 <0>         0.0000
     55 H30         0.5107   -1.8623    4.0911 H         1 <0>         0.0000
     56 H31        -1.9241   -0.0653   -2.7394 H         1 <0>         0.0000
@<TRIPOS>BOND
     1    1    2 ar
     2    1    3 ar
     3    1   26 1
     4    2    5 ar
     5    2   27 1
     6    3    7 ar
     7    3   28 1
     8    4    5 ar
     9    4    6 1
    10    4    7 ar
    11    5   12 1
    12    6    8 2
    13    6    9 1
    14    7   22 1
    15    8   18 1
    16    8   22 1
    17    9   14 1
    18    9   29 1
    19    9   30 1
    20   10   12 1
    21   10   13 1
    22   10   31 1
    23   10   32 1
    24   11   13 1
    25   11   23 1
    26   11   33 1
    27   11   34 1
    28   12   14 1
    29   12   35 1
    30   13   19 1
    31   13   36 1
    32   14   23 1
    33   14   37 1
    34   15   20 1
    35   15   38 1
    36   15   39 1
    37   15   40 1
    38   16   24 1
    39   16   41 1
    40   16   42 1
    41   16   43 1
    42   17   25 1
    43   17   44 1
    44   17   45 1
    45   17   46 1
    46   18   24 1
    47   18   47 1
    48   18   48 1
    49   19   25 1
    50   19   49 1
    51   19   50 1
    52   20   21 1
    53   20   51 1
    54   20   52 1
    55   21   23 1
    56   21   53 1
    57   21   54 1
    58   22   55 1
    59   23   56 1
