@<TRIPOS>MOLECULE
*****
   40    41     0     0     0
SMALL
NO_CHARGES

@<TRIPOS>ATOM
      1 C1          6.0046   -9.2039   -3.2603 C.ar      1 <0>         0.0000
      2 C2          4.6459   -9.5290   -3.3178 C.ar      1 <0>         0.0000
      3 C3          6.4181   -8.0877   -2.5263 C.ar      1 <0>         0.0000
      4 C4          3.7068   -8.7409   -2.6475 C.ar      1 <0>         0.0000
      5 C5          5.4805   -7.3003   -1.8530 C.ar      1 <0>         0.0000
      6 C6          4.1172   -7.6213   -1.9136 C.ar      1 <0>         0.0000
      7 C7          3.0909   -7.1991    0.3322 C.2       1 <0>         0.0000
      8 C8          3.2883   -5.3221   -1.4258 C.2       1 <0>         0.0000
      9 C9         -0.2886   -0.5342   -1.8230 C.3       1 <0>         0.0000
     10 C10        -0.5239   -1.9905   -1.3991 C.3       1 <0>         0.0000
     11 C11         1.1933   -0.1524   -1.7034 C.3       1 <0>         0.0000
     12 C12         0.3723   -2.9565   -2.1863 C.3       1 <0>         0.0000
     13 C13         2.0905   -1.1212   -2.4873 C.3       1 <0>         0.0000
     14 C14         1.8571   -2.5800   -2.0558 C.3       1 <0>         0.0000
     15 C15         2.7602   -3.5003   -2.8694 C.3       1 <0>         0.0000
     16 C16         3.0690   -6.7995   -1.1605 C.3       1 <0>         0.0000
     17 O1          2.4452   -8.1460    0.7210 O.2       1 <0>         0.0000
     18 O2          4.0365   -4.6089   -0.7608 O.2       1 <0>         0.0000
     19 O3          3.8888   -6.4885    1.1484 O.3       1 <0>         0.0000
     20 O4          2.6020   -4.9017   -2.4857 O.3       1 <0>         0.0000
     21 H1          6.7355   -9.8164   -3.7816 H         1 <0>         0.0000
     22 H2          4.3157  -10.3971   -3.8821 H         1 <0>         0.0000
     23 H3          7.4727   -7.8301   -2.4740 H         1 <0>         0.0000
     24 H4          2.6526   -9.0017   -2.6854 H         1 <0>         0.0000
     25 H5          5.8157   -6.4366   -1.2860 H         1 <0>         0.0000
     26 H6         -0.9030    0.1418   -1.2172 H         1 <0>         0.0000
     27 H7         -0.6125   -0.4045   -2.8651 H         1 <0>         0.0000
     28 H8         -0.3118   -2.0949   -0.3262 H         1 <0>         0.0000
     29 H9         -1.5767   -2.2623   -1.5372 H         1 <0>         0.0000
     30 H10         1.3532    0.8721   -2.0587 H         1 <0>         0.0000
     31 H11         1.4876   -0.1677   -0.6454 H         1 <0>         0.0000
     32 H12         0.2125   -3.9851   -1.8456 H         1 <0>         0.0000
     33 H13         0.0903   -2.9303   -3.2490 H         1 <0>         0.0000
     34 H14         1.8761   -1.0236   -3.5615 H         1 <0>         0.0000
     35 H15         3.1451   -0.8529   -2.3494 H         1 <0>         0.0000
     36 H16         2.1513   -2.6703   -1.0023 H         1 <0>         0.0000
     37 H17         3.8118   -3.2280   -2.7579 H         1 <0>         0.0000
     38 H18         2.4883   -3.4900   -3.9273 H         1 <0>         0.0000
     39 H19         2.0832   -7.0748   -1.5330 H         1 <0>         0.0000
     40 H20         4.2292   -5.7016    0.6589 H         1 <0>         0.0000
@<TRIPOS>BOND
     1    1    3 ar
     2    1    2 ar
     3    1   21 1
     4    2    4 ar
     5    2   22 1
     6    3    5 ar
     7    3   23 1
     8    4    6 ar
     9    4   24 1
    10    5    6 ar
    11    5   25 1
    12    6   16 1
    13    7   16 1
    14    7   17 2
    15    7   19 1
    16    8   16 1
    17    8   18 2
    18    8   20 1
    19    9   11 1
    20    9   10 1
    21    9   26 1
    22    9   27 1
    23   10   12 1
    24   10   28 1
    25   10   29 1
    26   11   13 1
    27   11   30 1
    28   11   31 1
    29   12   14 1
    30   12   32 1
    31   12   33 1
    32   13   14 1
    33   13   34 1
    34   13   35 1
    35   14   15 1
    36   14   36 1
    37   15   20 1
    38   15   37 1
    39   15   38 1
    40   16   39 1
    41   19   40 1
