@<TRIPOS>MOLECULE
*****
   20    21     0     0     0
SMALL
NO_CHARGES

@<TRIPOS>ATOM
      1 C1          1.8436   -1.2302   -0.0835 C.ar      1 <0>         0.0000
      2 C2          0.7559   -0.5890    0.5218 C.ar      1 <0>         0.0000
      3 C3          2.9029   -1.6839    0.7006 C.ar      1 <0>         0.0000
      4 C4          0.7329   -0.3942    1.9050 C.ar      1 <0>         0.0000
      5 C5          2.7278   -4.0015    5.6510 C.2       1 <0>         0.0000
      6 C6          3.9919   -4.0516    6.1945 C.2       1 <0>         0.0000
      7 C7          2.8860   -1.5308    2.0970 C.ar      1 <0>         0.0000
      8 C8          1.7945   -0.8681    2.6680 C.ar      1 <0>         0.0000
      9 C9          3.7845   -2.8141    4.1201 C.2       1 <0>         0.0000
     10 C10         4.0504   -2.0514    2.8762 C.2       1 <0>         0.0000
     11 N1          2.6217   -3.3009    4.4815 N.2       1 <0>         0.0000
     12 O1          5.2020   -1.9133    2.4732 O.2       1 <0>         0.0000
     13 F1          1.7834   -0.6114    3.9964 F         1 <0>         0.0000
     14 S1          5.1105   -3.1997    5.1998 S.3       1 <0>         0.0000
     15 H1          1.8650   -1.3716   -1.1600 H         1 <0>         0.0000
     16 H2         -0.0717   -0.2282   -0.0828 H         1 <0>         0.0000
     17 H3          3.7602   -2.1737    0.2487 H         1 <0>         0.0000
     18 H4         -0.0833    0.1256    2.3973 H         1 <0>         0.0000
     19 H5          1.8468   -4.4669    6.0795 H         1 <0>         0.0000
     20 H6          4.3050   -4.5374    7.1100 H         1 <0>         0.0000
@<TRIPOS>BOND
     1    1    2 ar
     2    1    3 ar
     3    1   15 1
     4    2    4 ar
     5    2   16 1
     6    3    7 ar
     7    3   17 1
     8    4    8 ar
     9    4   18 1
    10    5    6 2
    11    5   11 1
    12    5   19 1
    13    6   14 1
    14    6   20 1
    15    7    8 ar
    16    7   10 1
    17    8   13 1
    18    9   10 1
    19    9   11 2
    20    9   14 1
    21   10   12 2
