@<TRIPOS>MOLECULE
*****
   18    19     0     0     0
SMALL
NO_CHARGES

@<TRIPOS>ATOM
      1 C1          1.5194   -0.5842    1.2820 C.ar      1 <0>         0.0000
      2 C2          0.1722   -0.3209    1.0194 C.ar      1 <0>         0.0000
      3 C3          1.8837   -1.0201    2.5554 C.ar      1 <0>         0.0000
      4 C4         -0.7447   -0.5107    2.0573 C.ar      1 <0>         0.0000
      5 C5          0.8905   -1.1822    3.5363 C.ar      1 <0>         0.0000
      6 C6          0.4706   -1.1110    6.1011 C.3       1 <0>         0.0000
      7 C7          0.2759   -2.5362    5.6693 C.3       1 <0>         0.0000
      8 C8          1.2445   -1.6451    4.9035 C.3       1 <0>         0.0000
      9 N1         -0.4070   -0.9284    3.2827 N.ar      1 <0>         0.0000
     10 H1          2.2721   -0.4521    0.5085 H         1 <0>         0.0000
     11 H2         -0.1624    0.0206    0.0441 H         1 <0>         0.0000
     12 H3          2.9220   -1.2342    2.7947 H         1 <0>         0.0000
     13 H4         -1.8047   -0.3170    1.8953 H         1 <0>         0.0000
     14 H5         -0.3268   -0.4107    5.8747 H         1 <0>         0.0000
     15 H6          1.0332   -0.9105    7.0083 H         1 <0>         0.0000
     16 H7          0.7027   -3.3302    6.2752 H         1 <0>         0.0000
     17 H8         -0.6502   -2.7778    5.1579 H         1 <0>         0.0000
     18 H9          2.3024   -1.8368    5.0582 H         1 <0>         0.0000
@<TRIPOS>BOND
     1    1    2 ar
     2    1    3 ar
     3    1   10 1
     4    2    4 ar
     5    2   11 1
     6    3    5 ar
     7    3   12 1
     8    4    9 ar
     9    4   13 1
    10    5    8 1
    11    5    9 ar
    12    6    7 1
    13    6    8 1
    14    6   14 1
    15    6   15 1
    16    7    8 1
    17    7   16 1
    18    7   17 1
    19    8   18 1
