@<TRIPOS>MOLECULE
*****
   34    34     0     0     0
SMALL
NO_CHARGES

@<TRIPOS>ATOM
      1 C1          1.5042   -1.3998   -0.1621 C.ar      1 <0>         0.0000
      2 C2          0.3999   -1.1304    0.6569 C.ar      1 <0>         0.0000
      3 C3          2.9193   -1.5127    1.7711 C.ar      1 <0>         0.0000
      4 C4          2.7793   -1.5896    0.3761 C.ar      1 <0>         0.0000
      5 C5          0.5527   -1.0442    2.0447 C.ar      1 <0>         0.0000
      6 C6          1.8353   -1.2466    2.6031 C.ar      1 <0>         0.0000
      7 C7         -4.1053    0.1360    3.0961 C.3       1 <0>         0.0000
      8 C8          1.4639   -2.1505    4.7661 C.3       1 <0>         0.0000
      9 C9          3.9609   -1.9246   -0.5042 C.3       1 <0>         0.0000
     10 C10        -2.6810   -0.1798    3.5657 C.3       1 <0>         0.0000
     11 C11         4.2066   -3.4379   -0.6004 C.3       1 <0>         0.0000
     12 C12        -1.7568   -0.4904    2.3974 C.3       1 <0>         0.0000
     13 N1          5.3321   -3.7169   -1.5068 N.3       1 <0>         0.0000
     14 O1          2.0546   -1.1230    3.9588 O.3       1 <0>         0.0000
     15 O2         -0.4565   -0.7604    2.9259 O.3       1 <0>         0.0000
     16 H1          1.3613   -1.4543   -1.2391 H         1 <0>         0.0000
     17 H2         -0.5709   -0.9746    0.2002 H         1 <0>         0.0000
     18 H3          3.8910   -1.6473    2.2408 H         1 <0>         0.0000
     19 H4         -4.1228    1.0075    2.4318 H         1 <0>         0.0000
     20 H5         -4.5436   -0.7077    2.5509 H         1 <0>         0.0000
     21 H6         -4.7571    0.3551    3.9473 H         1 <0>         0.0000
     22 H7          1.7676   -1.9403    5.7939 H         1 <0>         0.0000
     23 H8          1.8419   -3.1373    4.4686 H         1 <0>         0.0000
     24 H9          0.3726   -2.1354    4.6938 H         1 <0>         0.0000
     25 H10         4.8660   -1.4419   -0.1128 H         1 <0>         0.0000
     26 H11         3.8088   -1.5380   -1.5170 H         1 <0>         0.0000
     27 H12        -2.6879   -1.0378    4.2474 H         1 <0>         0.0000
     28 H13        -2.2671    0.6665    4.1246 H         1 <0>         0.0000
     29 H14         4.3413   -3.8432    0.4166 H         1 <0>         0.0000
     30 H15         3.3112   -3.9152   -1.0142 H         1 <0>         0.0000
     31 H16        -2.1223   -1.3626    1.8370 H         1 <0>         0.0000
     32 H17        -1.7067    0.3623    1.7060 H         1 <0>         0.0000
     33 H18         5.4659   -4.7235   -1.5904 H         1 <0>         0.0000
     34 H19         6.1927   -3.3481   -1.1030 H         1 <0>         0.0000
@<TRIPOS>BOND
     1    1    2 ar
     2    1    4 ar
     3    1   16 1
     4    2    5 ar
     5    2   17 1
     6    3    4 ar
     7    3    6 ar
     8    3   18 1
     9    4    9 1
    10    5    6 ar
    11    5   15 1
    12    6   14 1
    13    7   10 1
    14    7   19 1
    15    7   20 1
    16    7   21 1
    17    8   14 1
    18    8   22 1
    19    8   23 1
    20    8   24 1
    21    9   11 1
    22    9   25 1
    23    9   26 1
    24   10   12 1
    25   10   27 1
    26   10   28 1
    27   11   13 1
    28   11   29 1
    29   11   30 1
    30   12   15 1
    31   12   31 1
    32   12   32 1
    33   13   33 1
    34   13   34 1
