@<TRIPOS>MOLECULE
*****
   20    21     0     0     0
SMALL
NO_CHARGES

@<TRIPOS>ATOM
      1 C1          1.5240   -1.2969   -0.1061 C.ar      1 <0>         0.0000
      2 C2          0.7197   -0.4634    0.6817 C.ar      1 <0>         0.0000
      3 C3          2.6547   -1.8942    0.4478 C.ar      1 <0>         0.0000
      4 C4          1.0427   -0.2328    2.0210 C.ar      1 <0>         0.0000
      5 C5          6.9141   -1.0653    4.4510 C.2       1 <0>         0.0000
      6 C6          6.6796    0.2131    3.9986 C.2       1 <0>         0.0000
      7 C7          3.0204   -1.6518    1.7828 C.ar      1 <0>         0.0000
      8 C8          2.1848   -0.8290    2.5448 C.ar      1 <0>         0.0000
      9 C9          5.2205   -1.5232    3.1100 C.2       1 <0>         0.0000
     10 C10         4.2423   -2.3347    2.3258 C.2       1 <0>         0.0000
     11 N1          6.0974   -2.0339    3.9377 N.2       1 <0>         0.0000
     12 O1          4.4669   -3.5079    2.0707 O.2       1 <0>         0.0000
     13 F1          2.4629   -0.6300    3.8577 F         1 <0>         0.0000
     14 S1          5.3615    0.2173    2.8923 S.3       1 <0>         0.0000
     15 H1          1.2653   -1.4825   -1.1443 H         1 <0>         0.0000
     16 H2         -0.1671   -0.0000    0.2582 H         1 <0>         0.0000
     17 H3          3.2805   -2.5573   -0.1421 H         1 <0>         0.0000
     18 H4          0.4232    0.3855    2.6632 H         1 <0>         0.0000
     19 H5          7.6844   -1.3379    5.1646 H         1 <0>         0.0000
     20 H6          7.2085    1.1229    4.2524 H         1 <0>         0.0000
@<TRIPOS>BOND
     1    1    2 ar
     2    1    3 ar
     3    1   15 1
     4    2    4 ar
     5    2   16 1
     6    3    7 ar
     7    3   17 1
     8    4    8 ar
     9    4   18 1
    10    5    6 2
    11    5   11 1
    12    5   19 1
    13    6   14 1
    14    6   20 1
    15    7    8 ar
    16    7   10 1
    17    8   13 1
    18    9   10 1
    19    9   11 2
    20    9   14 1
    21   10   12 2
