@<TRIPOS>MOLECULE
*****
   55    58     0     0     0
SMALL
NO_CHARGES

@<TRIPOS>ATOM
      1 C1          0.4657    3.4985   -0.8576 C.ar      1 <0>         0.0000
      2 C2          1.0907    2.3814   -0.2513 C.ar      1 <0>         0.0000
      3 C3         -0.8051    3.4320   -1.4369 C.ar      1 <0>         0.0000
      4 C4         -0.8355    1.0885   -0.7596 C.ar      1 <0>         0.0000
      5 C5          0.4429    1.1470   -0.1938 C.ar      1 <0>         0.0000
      6 C6         -1.7188   -0.0327   -0.8196 C.2       1 <0>         0.0000
      7 C7         -1.4570    2.1923   -1.3855 C.ar      1 <0>         0.0000
      8 C8         -2.8462    0.3869   -1.4882 C.2       1 <0>         0.0000
      9 C9         -1.2880   -1.3078   -0.1560 C.3       1 <0>         0.0000
     10 C10         2.4986   -0.2840    0.1861 C.3       1 <0>         0.0000
     11 C11         2.1945   -2.7802    0.1412 C.3       1 <0>         0.0000
     12 C12         0.9805   -0.1450    0.4068 C.3       1 <0>         0.0000
     13 C13         3.0643   -1.6243    0.6859 C.3       1 <0>         0.0000
     14 C14         0.2555   -1.3953   -0.1944 C.3       1 <0>         0.0000
     15 C15         0.2116   -5.5300    1.1359 C.3       1 <0>         0.0000
     16 C16        -5.3791    0.4178    0.0280 C.3       1 <0>         0.0000
     17 C17         4.5043   -0.7595    4.5214 C.3       1 <0>         0.0000
     18 C18        -4.1121   -0.3239   -1.8439 C.3       1 <0>         0.0000
     19 C19         3.2413   -1.6626    2.2120 C.3       1 <0>         0.0000
     20 C20         0.6462   -4.4480    2.1298 C.3       1 <0>         0.0000
     21 C21         0.2625   -3.0273    1.6942 C.3       1 <0>         0.0000
     22 N1         -2.6787    1.7327   -1.8519 N.pl3     1 <0>         0.0000
     23 N2          0.7533   -2.6629    0.3618 N.3       1 <0>         0.0000
     24 O1         -5.2837    0.3637   -1.3916 O.3       1 <0>         0.0000
     25 S1          4.6897   -0.6471    2.7103 S.3       1 <0>         0.0000
     26 H1          1.0003    4.4448   -0.8802 H         1 <0>         0.0000
     27 H2          2.0862    2.5064    0.1648 H         1 <0>         0.0000
     28 H3         -1.2514    4.3053   -1.9058 H         1 <0>         0.0000
     29 H4         -1.6393   -1.2981    0.8826 H         1 <0>         0.0000
     30 H5         -1.7028   -2.2038   -0.6295 H         1 <0>         0.0000
     31 H6          2.6918   -0.1966   -0.8905 H         1 <0>         0.0000
     32 H7          3.0307    0.5415    0.6667 H         1 <0>         0.0000
     33 H8          2.3465   -2.8147   -0.9463 H         1 <0>         0.0000
     34 H9          2.5489   -3.7378    0.5302 H         1 <0>         0.0000
     35 H10         0.7747   -0.1282    1.4870 H         1 <0>         0.0000
     36 H11         4.0618   -1.7582    0.2450 H         1 <0>         0.0000
     37 H12         0.5283   -1.4152   -1.2597 H         1 <0>         0.0000
     38 H13        -0.8700   -5.4872    0.9629 H         1 <0>         0.0000
     39 H14         0.7002   -5.3990    0.1666 H         1 <0>         0.0000
     40 H15         0.4538   -6.5297    1.5122 H         1 <0>         0.0000
     41 H16        -6.3091    0.9407    0.2615 H         1 <0>         0.0000
     42 H17        -4.5334    0.9598    0.4719 H         1 <0>         0.0000
     43 H18        -5.4148   -0.5935    0.4602 H         1 <0>         0.0000
     44 H19         5.3256   -0.1945    4.9692 H         1 <0>         0.0000
     45 H20         4.5653   -1.7974    4.8620 H         1 <0>         0.0000
     46 H21         3.5565   -0.3214    4.8485 H         1 <0>         0.0000
     47 H22        -4.2356   -0.3959   -2.9299 H         1 <0>         0.0000
     48 H23        -4.0781   -1.3442   -1.4361 H         1 <0>         0.0000
     49 H24         3.4061   -2.6897    2.5548 H         1 <0>         0.0000
     50 H25         2.3618   -1.2708    2.7294 H         1 <0>         0.0000
     51 H26         1.7235   -4.5213    2.3166 H         1 <0>         0.0000
     52 H27         0.1669   -4.6240    3.1010 H         1 <0>         0.0000
     53 H28        -0.8294   -2.9929    1.6597 H         1 <0>         0.0000
     54 H29         0.5656   -2.3206    2.4859 H         1 <0>         0.0000
     55 H30        -3.4311    2.3043   -2.2112 H         1 <0>         0.0000
@<TRIPOS>BOND
     1    1    2 ar
     2    1    3 ar
     3    1   26 1
     4    2    5 ar
     5    2   27 1
     6    3    7 ar
     7    3   28 1
     8    4    5 ar
     9    4    6 1
    10    4    7 ar
    11    5   12 1
    12    6    8 2
    13    6    9 1
    14    7   22 1
    15    8   18 1
    16    8   22 1
    17    9   14 1
    18    9   29 1
    19    9   30 1
    20   10   12 1
    21   10   13 1
    22   10   31 1
    23   10   32 1
    24   11   13 1
    25   11   23 1
    26   11   33 1
    27   11   34 1
    28   12   14 1
    29   12   35 1
    30   13   19 1
    31   13   36 1
    32   14   23 1
    33   14   37 1
    34   15   20 1
    35   15   38 1
    36   15   39 1
    37   15   40 1
    38   16   24 1
    39   16   41 1
    40   16   42 1
    41   16   43 1
    42   17   25 1
    43   17   44 1
    44   17   45 1
    45   17   46 1
    46   18   24 1
    47   18   47 1
    48   18   48 1
    49   19   25 1
    50   19   49 1
    51   19   50 1
    52   20   21 1
    53   20   51 1
    54   20   52 1
    55   21   23 1
    56   21   53 1
    57   21   54 1
    58   22   55 1
