@<TRIPOS>MOLECULE
*****
   64    69     0     0     0
SMALL
NO_CHARGES

@<TRIPOS>ATOM
      1 C1         10.0432   -5.0193    1.6385 C.ar      1 <0>         0.0000
      2 C2          9.4399   -5.1384    2.8949 C.ar      1 <0>         0.0000
      3 C3          9.2616   -5.1315    0.4825 C.ar      1 <0>         0.0000
      4 C4          8.0658   -5.3719    2.9939 C.ar      1 <0>         0.0000
      5 C5          7.8871   -5.3521    0.5806 C.ar      1 <0>         0.0000
      6 C6          4.3560   -8.3457   -0.3634 C.ar      1 <0>         0.0000
      7 C7          6.5922   -8.4263    0.5442 C.ar      1 <0>         0.0000
      8 C8          4.6559   -9.4286   -1.1881 C.ar      1 <0>         0.0000
      9 C9          6.8824   -9.5113   -0.2823 C.ar      1 <0>         0.0000
     10 C10         4.1408   -3.1044    3.9431 C.2       1 <0>         0.0000
     11 C11         5.2033   -3.7429    3.3718 C.2       1 <0>         0.0000
     12 C12         5.3247   -7.8182    0.5092 C.ar      1 <0>         0.0000
     13 C13         7.2708   -5.4808    1.8383 C.ar      1 <0>         0.0000
     14 C14         5.9235  -10.0297   -1.1650 C.ar      1 <0>         0.0000
     15 C15         4.9758   -6.6699    1.3583 C.2       1 <0>         0.0000
     16 C16         5.8244   -5.7239    1.9321 C.2       1 <0>         0.0000
     17 C17         2.8370   -3.6687    3.7499 C.2       1 <0>         0.0000
     18 C18         3.6556   -5.3644    2.4682 C.2       1 <0>         0.0000
     19 C19        -1.1491   -3.3803    7.2211 C.2       1 <0>         0.0000
     20 C20        -0.7580   -3.0586    8.6618 C.3       1 <0>         0.0000
     21 C21         0.6376   -2.4252    8.5437 C.3       1 <0>         0.0000
     22 C22         6.9940  -11.9165   -3.9250 C.3       1 <0>         0.0000
     23 C23         7.6447  -11.4050   -2.6115 C.3       1 <0>         0.0000
     24 C24         5.6456  -11.3106   -3.4507 C.3       1 <0>         0.0000
     25 C25         0.6674   -1.8570    7.1101 C.3       1 <0>         0.0000
     26 C26         6.2183  -11.2557   -2.0026 C.3       1 <0>         0.0000
     27 C27        -0.4685   -2.6691    4.9584 C.3       1 <0>         0.0000
     28 C28         0.4937   -3.5559    4.1849 C.3       1 <0>         0.0000
     29 N1          3.6559   -6.4314    1.6911 N.2       1 <0>         0.0000
     30 N2          2.5987   -4.7442    3.0404 N.2       1 <0>         0.0000
     31 N3          4.9763   -4.8854    2.6572 N.pl3     1 <0>         0.0000
     32 N4         -0.2743   -2.7173    6.3953 N.am      1 <0>         0.0000
     33 N5          5.8671  -12.5139   -1.3088 N.3       1 <0>         0.0000
     34 O1         -2.0861   -4.0800    6.8477 O.2       1 <0>         0.0000
     35 O2          1.8234   -3.0073    4.3509 O.3       1 <0>         0.0000
     36 H1         11.1128   -4.8435    1.5606 H         1 <0>         0.0000
     37 H2         10.0408   -5.0637    3.7976 H         1 <0>         0.0000
     38 H3          9.7228   -5.0401   -0.4974 H         1 <0>         0.0000
     39 H4          7.6098   -5.5022    3.9726 H         1 <0>         0.0000
     40 H5          7.2804   -5.4367   -0.3162 H         1 <0>         0.0000
     41 H6          3.3700   -7.8921   -0.3804 H         1 <0>         0.0000
     42 H7          7.3513   -8.0608    1.2276 H         1 <0>         0.0000
     43 H8          3.8937   -9.8114   -1.8639 H         1 <0>         0.0000
     44 H9          7.8710   -9.9636   -0.2376 H         1 <0>         0.0000
     45 H10         4.2702   -2.1960    4.5182 H         1 <0>         0.0000
     46 H11         6.2276   -3.3958    3.4433 H         1 <0>         0.0000
     47 H12        -1.5012   -2.3573    9.0588 H         1 <0>         0.0000
     48 H13        -0.7953   -3.9595    9.2771 H         1 <0>         0.0000
     49 H14         0.8333   -1.6558    9.2943 H         1 <0>         0.0000
     50 H15         1.4067   -3.1971    8.6435 H         1 <0>         0.0000
     51 H16         6.9583  -13.0067   -3.9624 H         1 <0>         0.0000
     52 H17         7.4057  -11.5338   -4.8626 H         1 <0>         0.0000
     53 H18         8.3268  -12.0803   -2.0864 H         1 <0>         0.0000
     54 H19         8.1268  -10.4325   -2.7460 H         1 <0>         0.0000
     55 H20         5.4825  -10.3077   -3.8553 H         1 <0>         0.0000
     56 H21         4.7420  -11.9112   -3.5911 H         1 <0>         0.0000
     57 H22         0.3284   -0.8103    7.0787 H         1 <0>         0.0000
     58 H23         1.6581   -1.9060    6.6539 H         1 <0>         0.0000
     59 H24        -0.3803   -1.6323    4.6122 H         1 <0>         0.0000
     60 H25        -1.4856   -3.0175    4.7562 H         1 <0>         0.0000
     61 H26         0.2414   -3.5716    3.1202 H         1 <0>         0.0000
     62 H27         0.4742   -4.5818    4.5600 H         1 <0>         0.0000
     63 H28         4.8775  -12.4824   -1.0591 H         1 <0>         0.0000
     64 H29         6.3739  -12.5497   -0.4231 H         1 <0>         0.0000
@<TRIPOS>BOND
     1    1    3 ar
     2    1    2 ar
     3    1   36 1
     4    2    4 ar
     5    2   37 1
     6    3    5 ar
     7    3   38 1
     8    4   13 ar
     9    4   39 1
    10    5   13 ar
    11    5   40 1
    12    6    8 ar
    13    6   12 ar
    14    6   41 1
    15    7    9 ar
    16    7   12 ar
    17    7   42 1
    18    8   14 ar
    19    8   43 1
    20    9   14 ar
    21    9   44 1
    22   10   11 2
    23   10   17 1
    24   10   45 1
    25   11   31 1
    26   11   46 1
    27   12   15 1
    28   13   16 1
    29   14   26 1
    30   15   16 2
    31   15   29 1
    32   16   31 1
    33   17   30 2
    34   17   35 1
    35   18   29 2
    36   18   30 1
    37   18   31 1
    38   19   20 1
    39   19   32 am
    40   19   34 2
    41   20   21 1
    42   20   47 1
    43   20   48 1
    44   21   25 1
    45   21   49 1
    46   21   50 1
    47   22   24 1
    48   22   23 1
    49   22   51 1
    50   22   52 1
    51   23   26 1
    52   23   53 1
    53   23   54 1
    54   24   26 1
    55   24   55 1
    56   24   56 1
    57   25   32 1
    58   25   57 1
    59   25   58 1
    60   26   33 1
    61   27   28 1
    62   27   32 1
    63   27   59 1
    64   27   60 1
    65   28   35 1
    66   28   61 1
    67   28   62 1
    68   33   63 1
    69   33   64 1
