@<TRIPOS>MOLECULE
*****
   49    51     0     0     0
SMALL
NO_CHARGES

@<TRIPOS>ATOM
      1 C1         -0.4045    1.0003    0.0322 C.1       1 <0>         0.0000
      2 C2          0.9521   -5.9150   -3.8329 C.ar      1 <0>         0.0000
      3 C3          0.5995   -5.3035   -2.6271 C.ar      1 <0>         0.0000
      4 C4         -1.3354   -0.7145   -1.4571 C.ar      1 <0>         0.0000
      5 C5         -0.0630   -1.3820    0.5158 C.ar      1 <0>         0.0000
      6 C6         -0.5979   -0.3818   -0.3095 C.ar      1 <0>         0.0000
      7 C7         -1.6910   -5.0861   -3.4482 C.ar      1 <0>         0.0000
      8 C8         -1.5318   -2.0523   -1.8091 C.ar      1 <0>         0.0000
      9 C9          0.0189   -6.1230   -4.8484 C.ar      1 <0>         0.0000
     10 C10        -0.7177   -4.9091   -2.4568 C.ar      1 <0>         0.0000
     11 C11        -0.9730   -3.0421   -0.9944 C.ar      1 <0>         0.0000
     12 C12        -0.2594   -2.7176    0.1717 C.ar      1 <0>         0.0000
     13 C13        -1.3137   -5.6971   -4.6611 C.ar      1 <0>         0.0000
     14 C14        -3.0968   -4.7037   -3.0871 C.2       1 <0>         0.0000
     15 C15        -2.3213   -2.3881   -3.0524 C.3       1 <0>         0.0000
     16 C16        -1.8249   -8.9626   -6.9687 C.3       1 <0>         0.0000
     17 C17        -0.7522  -10.4631   -5.2455 C.3       1 <0>         0.0000
     18 C18        -3.2988   -5.1016   -5.9561 C.3       1 <0>         0.0000
     19 C19         0.4347   -8.3588   -5.9537 C.3       1 <0>         0.0000
     20 C20         0.4433   -6.8268   -6.1217 C.3       1 <0>         0.0000
     21 C21        -0.9380   -9.0131   -5.7159 C.3       1 <0>         0.0000
     22 N1         -0.2492    2.1232    0.3024 N.1       1 <0>         0.0000
     23 O1         -4.0040   -5.4998   -3.0033 O.2       1 <0>         0.0000
     24 O2         -1.1386   -4.4024   -1.2167 O.3       1 <0>         0.0000
     25 O3         -3.3372   -3.3877   -2.8261 O.3       1 <0>         0.0000
     26 O4          0.2492   -3.7006    0.9632 O.3       1 <0>         0.0000
     27 O5          1.7755   -6.3704   -6.4214 O.3       1 <0>         0.0000
     28 O6         -2.1518   -5.9260   -5.7120 O.3       1 <0>         0.0000
     29 H1          1.9775   -6.2231   -4.0074 H         1 <0>         0.0000
     30 H2          1.3239   -5.1483   -1.8333 H         1 <0>         0.0000
     31 H3         -1.7630    0.0763   -2.0658 H         1 <0>         0.0000
     32 H4          0.4960   -1.1351    1.4121 H         1 <0>         0.0000
     33 H5         -2.8685   -1.5039   -3.3830 H         1 <0>         0.0000
     34 H6         -1.6593   -2.7018   -3.8643 H         1 <0>         0.0000
     35 H7         -1.3620   -9.5187   -7.7938 H         1 <0>         0.0000
     36 H8         -2.8017   -9.4163   -6.7696 H         1 <0>         0.0000
     37 H9         -2.0008   -7.9365   -7.3008 H         1 <0>         0.0000
     38 H10        -0.2235  -11.0569   -6.0016 H         1 <0>         0.0000
     39 H11        -0.1729  -10.5107   -4.3168 H         1 <0>         0.0000
     40 H12        -1.7196  -10.9435   -5.0631 H         1 <0>         0.0000
     41 H13        -3.4875   -5.1759   -7.0285 H         1 <0>         0.0000
     42 H14        -3.0933   -4.0558   -5.7021 H         1 <0>         0.0000
     43 H15        -4.1657   -5.4577   -5.3981 H         1 <0>         0.0000
     44 H16         1.1097   -8.5979   -5.1230 H         1 <0>         0.0000
     45 H17         0.8783   -8.8029   -6.8583 H         1 <0>         0.0000
     46 H18        -0.2332   -6.5356   -6.9309 H         1 <0>         0.0000
     47 H19        -1.4478   -8.4651   -4.9145 H         1 <0>         0.0000
     48 H20        -0.0468   -4.5533    0.5929 H         1 <0>         0.0000
     49 H21         2.1058   -6.9024   -7.1624 H         1 <0>         0.0000
@<TRIPOS>BOND
     1    1    6 1
     2    1   22 3
     3    2    3 ar
     4    2    9 ar
     5    2   29 1
     6    3   10 ar
     7    3   30 1
     8    4    6 ar
     9    4    8 ar
    10    4   31 1
    11    5    6 ar
    12    5   12 ar
    13    5   32 1
    14    7   10 ar
    15    7   13 ar
    16    7   14 1
    17    8   11 ar
    18    8   15 1
    19    9   13 ar
    20    9   20 1
    21   10   24 1
    22   11   12 ar
    23   11   24 1
    24   12   26 1
    25   13   28 1
    26   14   23 2
    27   14   25 1
    28   15   25 1
    29   15   33 1
    30   15   34 1
    31   16   21 1
    32   16   35 1
    33   16   36 1
    34   16   37 1
    35   17   21 1
    36   17   38 1
    37   17   39 1
    38   17   40 1
    39   18   28 1
    40   18   41 1
    41   18   42 1
    42   18   43 1
    43   19   20 1
    44   19   21 1
    45   19   44 1
    46   19   45 1
    47   20   27 1
    48   20   46 1
    49   21   47 1
    50   26   48 1
    51   27   49 1
