@<TRIPOS>MOLECULE
*****
   40    42     0     0     0
SMALL
NO_CHARGES

@<TRIPOS>ATOM
      1 C1         -0.1168   -2.5485   -1.6161 C.ar      1 <0>         0.0000
      2 C2          2.1268   -3.2188   -1.0523 C.ar      1 <0>         0.0000
      3 C3         -0.1356   -3.4672   -2.6675 C.ar      1 <0>         0.0000
      4 C4          2.1234   -4.1415   -2.0996 C.ar      1 <0>         0.0000
      5 C5          2.5290   -5.0619    2.4399 C.2       1 <0>         0.0000
      6 C6          2.3046   -3.7055    2.5144 C.2       1 <0>         0.0000
      7 C7          0.6388   -4.7251    1.4806 C.2       1 <0>         0.0000
      8 C8          1.0122   -2.4086   -0.7986 C.ar      1 <0>         0.0000
      9 C9          0.9892   -4.2589   -2.9020 C.ar      1 <0>         0.0000
     10 C10         0.7167    0.6841   -1.0193 C.3       1 <0>         0.0000
     11 C11         0.9129    1.1933    0.3819 C.3       1 <0>         0.0000
     12 C12         0.2326   -0.1530    0.1476 C.3       1 <0>         0.0000
     13 C13        -3.2140    0.7820    2.3667 C.3       1 <0>         0.0000
     14 C14         0.4326   -2.2260    1.6384 C.3       1 <0>         0.0000
     15 C15        -1.7867    0.2833    2.1368 C.3       1 <0>         0.0000
     16 C16         1.0168   -1.4745    0.4093 C.3       1 <0>         0.0000
     17 N1          1.4820   -5.6891    1.7927 N.2       1 <0>         0.0000
     18 N2          1.0797   -3.4948    1.9032 N.pl3     1 <0>         0.0000
     19 O1          2.3949   -1.1718    0.6662 O.3       1 <0>         0.0000
     20 S1         -1.5700   -0.1327    0.3592 S.3       1 <0>         0.0000
     21 Cl1         0.9717   -5.4193   -4.2211 Cl        1 <0>         0.0000
     22 H1         -1.0035   -1.9498   -1.4418 H         1 <0>         0.0000
     23 H2          3.0015   -3.1371   -0.4186 H         1 <0>         0.0000
     24 H3         -1.0146   -3.5669   -3.2965 H         1 <0>         0.0000
     25 H4          2.9886   -4.7710   -2.2808 H         1 <0>         0.0000
     26 H5          3.3762   -5.6192    2.8190 H         1 <0>         0.0000
     27 H6          2.8843   -2.8960    2.9328 H         1 <0>         0.0000
     28 H7         -0.2949   -4.8427    0.9450 H         1 <0>         0.0000
     29 H8         -0.0286    1.1602   -1.6470 H         1 <0>         0.0000
     30 H9          1.5925    0.3047   -1.5367 H         1 <0>         0.0000
     31 H10         1.9289    1.2143    0.7605 H         1 <0>         0.0000
     32 H11         0.2816    2.0066    0.7245 H         1 <0>         0.0000
     33 H12        -3.4160    1.6842    1.7821 H         1 <0>         0.0000
     34 H13        -3.9508    0.0226    2.0863 H         1 <0>         0.0000
     35 H14        -3.3622    1.0168    3.4259 H         1 <0>         0.0000
     36 H15         0.5209   -1.5872    2.5247 H         1 <0>         0.0000
     37 H16        -0.6276   -2.4159    1.4698 H         1 <0>         0.0000
     38 H17        -1.5891   -0.5965    2.7551 H         1 <0>         0.0000
     39 H18        -1.0567    1.0555    2.3974 H         1 <0>         0.0000
     40 H19         2.4381   -0.6899    1.5072 H         1 <0>         0.0000
@<TRIPOS>BOND
     1    1    3 ar
     2    1    8 ar
     3    1   22 1
     4    2    4 ar
     5    2    8 ar
     6    2   23 1
     7    3    9 ar
     8    3   24 1
     9    4    9 ar
    10    4   25 1
    11    5    6 2
    12    5   17 1
    13    5   26 1
    14    6   18 1
    15    6   27 1
    16    7   17 2
    17    7   18 1
    18    7   28 1
    19    8   16 1
    20    9   21 1
    21   10   11 1
    22   10   12 1
    23   10   29 1
    24   10   30 1
    25   11   12 1
    26   11   31 1
    27   11   32 1
    28   12   16 1
    29   12   20 1
    30   13   15 1
    31   13   33 1
    32   13   34 1
    33   13   35 1
    34   14   16 1
    35   14   18 1
    36   14   36 1
    37   14   37 1
    38   15   20 1
    39   15   38 1
    40   15   39 1
    41   16   19 1
    42   19   40 1
