@<TRIPOS>MOLECULE
*****
   28    28     0     0     0
SMALL
NO_CHARGES

@<TRIPOS>ATOM
      1 C1          5.0782   -1.3122    1.6296 C.ar      1 <0>         0.0000
      2 C2          5.3130   -1.0899    4.0266 C.ar      1 <0>         0.0000
      3 C3          3.8283   -0.6742    1.6705 C.ar      1 <0>         0.0000
      4 C4          5.8130   -1.5251    2.7939 C.ar      1 <0>         0.0000
      5 C5          3.3220   -0.2205    2.9027 C.ar      1 <0>         0.0000
      6 C6          4.0838   -0.4402    4.0647 C.ar      1 <0>         0.0000
      7 C7          3.1218   -0.5366    0.3380 C.2       1 <0>         0.0000
      8 C8          1.0929   -1.9124    0.8652 C.3       1 <0>         0.0000
      9 C9          1.1126   -0.3907   -1.1761 C.3       1 <0>         0.0000
     10 C10         2.1808    1.8463    2.9175 C.3       1 <0>         0.0000
     11 C11         1.5991   -0.5849    0.2620 C.3       1 <0>         0.0000
     12 O1          3.8055   -0.4741   -0.6773 O.2       1 <0>         0.0000
     13 O2          7.0309   -2.1564    2.8031 O.3       1 <0>         0.0000
     14 O3          2.1044    0.4127    2.9969 O.3       1 <0>         0.0000
     15 Cl1         3.4697    0.1103    5.6104 Cl        1 <0>         0.0000
     16 H1          5.4535   -1.6336    0.6612 H         1 <0>         0.0000
     17 H2          5.8836   -1.2605    4.9332 H         1 <0>         0.0000
     18 H3          1.4918   -2.7689    0.3103 H         1 <0>         0.0000
     19 H4          0.0009   -1.9511    0.8048 H         1 <0>         0.0000
     20 H5          1.3750   -2.0174    1.9154 H         1 <0>         0.0000
     21 H6          1.4632   -1.1985   -1.8248 H         1 <0>         0.0000
     22 H7          1.4781    0.5495   -1.5981 H         1 <0>         0.0000
     23 H8          0.0178   -0.3796   -1.1987 H         1 <0>         0.0000
     24 H9          1.1587    2.2128    3.0272 H         1 <0>         0.0000
     25 H10         2.5859    2.1582    1.9468 H         1 <0>         0.0000
     26 H11         2.8042    2.2499    3.7220 H         1 <0>         0.0000
     27 H12         1.2106    0.2195    0.8917 H         1 <0>         0.0000
     28 H13         7.2703   -2.3985    1.8941 H         1 <0>         0.0000
@<TRIPOS>BOND
     1    1    3 ar
     2    1    4 ar
     3    1   16 1
     4    2    4 ar
     5    2    6 ar
     6    2   17 1
     7    3    5 ar
     8    3    7 1
     9    4   13 1
    10    5    6 ar
    11    5   14 1
    12    6   15 1
    13    7   11 1
    14    7   12 2
    15    8   11 1
    16    8   18 1
    17    8   19 1
    18    8   20 1
    19    9   11 1
    20    9   21 1
    21    9   22 1
    22    9   23 1
    23   10   14 1
    24   10   24 1
    25   10   25 1
    26   10   26 1
    27   11   27 1
    28   13   28 1
