@<TRIPOS>MOLECULE
*****
   31    34     0     0     0
SMALL
NO_CHARGES

@<TRIPOS>ATOM
      1 C1          0.8683    4.6148    0.5926 C.ar      1 <0>         0.0000
      2 C2          0.8754    5.9944    0.5321 C.ar      1 <0>         0.0000
      3 C3          2.4578   -2.4494   -0.1495 C.2       1 <0>         0.0000
      4 C4          1.3950   -2.9947    0.5211 C.2       1 <0>         0.0000
      5 C5          0.5017   -2.0035    1.0463 C.2       1 <0>         0.0000
      6 C6         -0.1955    4.0125    1.2876 C.ar      1 <0>         0.0000
      7 C7          0.9155   -0.7132    0.7662 C.2       1 <0>         0.0000
      8 C8         -0.1720    6.6888    1.1639 C.ar      1 <0>         0.0000
      9 C9         -0.2606    2.5416    1.3885 C.2       1 <0>         0.0000
     10 C10         0.2912    0.5317    1.1171 C.2       1 <0>         0.0000
     11 C11         0.2423   -4.6064    1.7431 C.3       1 <0>         0.0000
     12 C12        -0.9799   -3.7106    1.6255 C.3       1 <0>         0.0000
     13 C13        -0.2471    8.1926    1.1533 C.3       1 <0>         0.0000
     14 N1         -1.1729    4.7163    1.8743 N.ar      1 <0>         0.0000
     15 N2         -1.1592    6.0459    1.8114 N.ar      1 <0>         0.0000
     16 N3          0.7011    1.7401    0.8085 N.2       1 <0>         0.0000
     17 N4         -1.2132    1.8882    2.0216 N.2       1 <0>         0.0000
     18 O1         -0.8482    0.5370    1.8434 O.3       1 <0>         0.0000
     19 O2          1.1758   -4.3372    0.6808 O.3       1 <0>         0.0000
     20 O3         -0.6152   -2.3205    1.7495 O.3       1 <0>         0.0000
     21 S1          2.4021   -0.7180   -0.1583 S.3       1 <0>         0.0000
     22 H1          1.6354    4.0004    0.1337 H         1 <0>         0.0000
     23 H2          1.6629    6.5359    0.0137 H         1 <0>         0.0000
     24 H3          3.2677   -2.9810   -0.6311 H         1 <0>         0.0000
     25 H4          0.7366   -4.4541    2.7106 H         1 <0>         0.0000
     26 H5         -0.0380   -5.6564    1.6415 H         1 <0>         0.0000
     27 H6         -1.4767   -3.8641    0.6604 H         1 <0>         0.0000
     28 H7         -1.6876   -3.9052    2.4332 H         1 <0>         0.0000
     29 H8         -0.2653    8.5769    0.1276 H         1 <0>         0.0000
     30 H9         -1.1500    8.5203    1.6708 H         1 <0>         0.0000
     31 H10         0.6248    8.6304    1.6521 H         1 <0>         0.0000
@<TRIPOS>BOND
     1    1    2 ar
     2    1    6 ar
     3    1   22 1
     4    2    8 ar
     5    2   23 1
     6    3    4 2
     7    3   21 1
     8    3   24 1
     9    4    5 1
    10    4   19 1
    11    5    7 2
    12    5   20 1
    13    6    9 1
    14    6   14 ar
    15    7   10 1
    16    7   21 1
    17    8   13 1
    18    8   15 ar
    19    9   16 1
    20    9   17 2
    21   10   16 2
    22   10   18 1
    23   11   12 1
    24   11   19 1
    25   11   25 1
    26   11   26 1
    27   12   20 1
    28   12   27 1
    29   12   28 1
    30   13   29 1
    31   13   30 1
    32   13   31 1
    33   14   15 ar
    34   17   18 1
