@<TRIPOS>MOLECULE
*****
   34    34     0     0     0
SMALL
NO_CHARGES

@<TRIPOS>ATOM
      1 C1          1.9439   -0.4056   -0.3947 C.ar      1 <0>         0.0000
      2 C2          1.0844    0.2838    0.4708 C.ar      1 <0>         0.0000
      3 C3          2.7002   -1.7680    1.4287 C.ar      1 <0>         0.0000
      4 C4          2.7601   -1.4424    0.0640 C.ar      1 <0>         0.0000
      5 C5          1.0247   -0.0559    1.8263 C.ar      1 <0>         0.0000
      6 C6          1.8540   -1.0956    2.3058 C.ar      1 <0>         0.0000
      7 C7         -2.5113    3.1196    3.0940 C.3       1 <0>         0.0000
      8 C8          2.3132   -0.5677    4.5735 C.3       1 <0>         0.0000
      9 C9          3.7224   -2.1584   -0.8552 C.3       1 <0>         0.0000
     10 C10        -1.5072    2.0302    3.4860 C.3       1 <0>         0.0000
     11 C11         5.1287   -1.5412   -0.8220 C.3       1 <0>         0.0000
     12 C12        -0.6940    1.5548    2.2907 C.3       1 <0>         0.0000
     13 N1          6.0439   -2.3047   -1.6855 N.3       1 <0>         0.0000
     14 O1          1.7978   -1.5070    3.6204 O.3       1 <0>         0.0000
     15 O2          0.2021    0.5387    2.7456 O.3       1 <0>         0.0000
     16 H1          1.9655   -0.1281   -1.4465 H         1 <0>         0.0000
     17 H2          0.4562    1.0732    0.0739 H         1 <0>         0.0000
     18 H3          3.3115   -2.5704    1.8353 H         1 <0>         0.0000
     19 H4         -2.0065    3.9979    2.6755 H         1 <0>         0.0000
     20 H5         -3.2233    2.7556    2.3445 H         1 <0>         0.0000
     21 H6         -3.0865    3.4511    3.9638 H         1 <0>         0.0000
     22 H7          2.2429   -1.0556    5.5481 H         1 <0>         0.0000
     23 H8          1.7262    0.3552    4.5803 H         1 <0>         0.0000
     24 H9          3.3644   -0.3377    4.3559 H         1 <0>         0.0000
     25 H10         3.3436   -2.1267   -1.8847 H         1 <0>         0.0000
     26 H11         3.8073   -3.2152   -0.5812 H         1 <0>         0.0000
     27 H12        -2.0279    1.1697    3.9202 H         1 <0>         0.0000
     28 H13        -0.8201    2.4057    4.2527 H         1 <0>         0.0000
     29 H14         5.0541   -0.4721   -1.0833 H         1 <0>         0.0000
     30 H15         5.5122   -1.5894    0.2034 H         1 <0>         0.0000
     31 H16        -1.3531    1.1469    1.5116 H         1 <0>         0.0000
     32 H17        -0.1256    2.3883    1.8543 H         1 <0>         0.0000
     33 H18         6.9814   -1.9092   -1.6303 H         1 <0>         0.0000
     34 H19         5.7522   -2.2096   -2.6579 H         1 <0>         0.0000
@<TRIPOS>BOND
     1    1    2 ar
     2    1    4 ar
     3    1   16 1
     4    2    5 ar
     5    2   17 1
     6    3    4 ar
     7    3    6 ar
     8    3   18 1
     9    4    9 1
    10    5    6 ar
    11    5   15 1
    12    6   14 1
    13    7   10 1
    14    7   19 1
    15    7   20 1
    16    7   21 1
    17    8   14 1
    18    8   22 1
    19    8   23 1
    20    8   24 1
    21    9   11 1
    22    9   25 1
    23    9   26 1
    24   10   12 1
    25   10   27 1
    26   10   28 1
    27   11   13 1
    28   11   29 1
    29   11   30 1
    30   12   15 1
    31   12   31 1
    32   12   32 1
    33   13   33 1
    34   13   34 1
