@<TRIPOS>MOLECULE
*****
   31    32     0     0     0
SMALL
NO_CHARGES

@<TRIPOS>ATOM
      1 C1          8.4587   -3.8880   -1.7942 C.ar      1 <0>         0.0000
      2 C2          8.4571   -3.9922   -0.3998 C.ar      1 <0>         0.0000
      3 C3          7.3630   -3.3109   -2.4546 C.ar      1 <0>         0.0000
      4 C4          7.3654   -3.5219    0.3324 C.ar      1 <0>         0.0000
      5 C5          6.2700   -2.8392   -1.7326 C.ar      1 <0>         0.0000
      6 C6          2.0835   -0.9583    0.0321 C.ar      1 <0>         0.0000
      7 C7          0.9517   -0.5700    2.1037 C.ar      1 <0>         0.0000
      8 C8          0.9643   -0.4702    0.7017 C.ar      1 <0>         0.0000
      9 C9          6.2704   -2.9451   -0.3294 C.ar      1 <0>         0.0000
     10 C10         3.1719   -1.5328    0.7132 C.ar      1 <0>         0.0000
     11 C11         3.1522   -1.6305    2.1386 C.ar      1 <0>         0.0000
     12 C12         2.0183   -1.1353    2.7999 C.ar      1 <0>         0.0000
     13 C13        -1.3802    0.6220    0.7359 C.3       1 <0>         0.0000
     14 C14        -0.1818    0.1430   -0.0871 C.3       1 <0>         0.0000
     15 N1          5.2136   -2.4986    0.4976 N.2       1 <0>         0.0000
     16 N2          4.2196   -1.9759   -0.1000 N.2       1 <0>         0.0000
     17 O1          4.1624   -2.1689    2.8376 O.3       1 <0>         0.0000
     18 Br1         1.9471   -1.2454    4.7079 Br        1 <0>         0.0000
     19 H1          9.3071   -4.2532   -2.3668 H         1 <0>         0.0000
     20 H2          9.3030   -4.4382    0.1159 H         1 <0>         0.0000
     21 H3          7.3671   -3.2311   -3.5386 H         1 <0>         0.0000
     22 H4          7.3460   -3.5942    1.4164 H         1 <0>         0.0000
     23 H5          5.4167   -2.3910   -2.2296 H         1 <0>         0.0000
     24 H6          2.1503   -0.9093   -1.0521 H         1 <0>         0.0000
     25 H7          0.1038   -0.2058    2.6725 H         1 <0>         0.0000
     26 H8         -1.8378   -0.1979    1.2997 H         1 <0>         0.0000
     27 H9         -2.1476    1.0382    0.0760 H         1 <0>         0.0000
     28 H10        -1.0967    1.4051    1.4471 H         1 <0>         0.0000
     29 H11         0.2107    0.9859   -0.6697 H         1 <0>         0.0000
     30 H12        -0.5262   -0.5925   -0.8247 H         1 <0>         0.0000
     31 H13         4.8459   -2.4468    2.1620 H         1 <0>         0.0000
@<TRIPOS>BOND
     1    1    3 ar
     2    1    2 ar
     3    1   19 1
     4    2    4 ar
     5    2   20 1
     6    3    5 ar
     7    3   21 1
     8    4    9 ar
     9    4   22 1
    10    5    9 ar
    11    5   23 1
    12    6    8 ar
    13    6   10 ar
    14    6   24 1
    15    7    8 ar
    16    7   12 ar
    17    7   25 1
    18    8   14 1
    19    9   15 1
    20   10   11 ar
    21   10   16 1
    22   11   12 ar
    23   11   17 1
    24   12   18 1
    25   13   14 1
    26   13   26 1
    27   13   27 1
    28   13   28 1
    29   14   29 1
    30   14   30 1
    31   15   16 2
    32   17   31 1
