@<TRIPOS>MOLECULE
*****
   31    34     0     0     0
SMALL
NO_CHARGES

@<TRIPOS>ATOM
      1 C1         -1.6475    4.8687    0.3709 C.ar      1 <0>         0.0000
      2 C2         -1.5639    6.1988    0.7238 C.ar      1 <0>         0.0000
      3 C3          1.1036   -3.1319   -0.1140 C.2       1 <0>         0.0000
      4 C4          2.0976   -2.4608    0.5474 C.2       1 <0>         0.0000
      5 C5          1.8080   -1.0670    0.7240 C.2       1 <0>         0.0000
      6 C6         -0.5587    4.0444    0.7165 C.ar      1 <0>         0.0000
      7 C7          0.5878   -0.7049    0.1782 C.2       1 <0>         0.0000
      8 C8         -0.4058    6.6325    1.3987 C.ar      1 <0>         0.0000
      9 C9         -0.5720    2.6077    0.3743 C.2       1 <0>         0.0000
     10 C10        -0.0161    0.5979    0.1804 C.2       1 <0>         0.0000
     11 C11         4.2673   -2.0496    1.2843 C.3       1 <0>         0.0000
     12 C12         3.6928   -0.8935    2.0860 C.3       1 <0>         0.0000
     13 C13        -0.2261    8.0662    1.8216 C.3       1 <0>         0.0000
     14 N1          0.5218    4.5020    1.3589 N.ar      1 <0>         0.0000
     15 N2          0.5954    5.7909    1.6975 N.ar      1 <0>         0.0000
     16 N3          0.4423    1.7256    0.6658 N.2       1 <0>         0.0000
     17 N4         -1.6043    2.0779   -0.2548 N.2       1 <0>         0.0000
     18 O1         -1.2446    0.7287   -0.3917 O.3       1 <0>         0.0000
     19 O2          3.2520   -3.0335    1.0103 O.3       1 <0>         0.0000
     20 O3          2.6566   -0.2161    1.3474 O.3       1 <0>         0.0000
     21 S1         -0.2108   -2.0893   -0.5425 S.3       1 <0>         0.0000
     22 H1         -2.5049    4.4549   -0.1501 H         1 <0>         0.0000
     23 H2         -2.3629    6.8988    0.4926 H         1 <0>         0.0000
     24 H3          1.0844   -4.1821   -0.3734 H         1 <0>         0.0000
     25 H4          4.6885   -1.6877    0.3381 H         1 <0>         0.0000
     26 H5          5.0437   -2.5658    1.8520 H         1 <0>         0.0000
     27 H6          3.2774   -1.2537    3.0345 H         1 <0>         0.0000
     28 H7          4.4546   -0.1385    2.2875 H         1 <0>         0.0000
     29 H8         -1.0365    8.3826    2.4875 H         1 <0>         0.0000
     30 H9          0.7257    8.1802    2.3426 H         1 <0>         0.0000
     31 H10        -0.2366    8.7339    0.9528 H         1 <0>         0.0000
@<TRIPOS>BOND
     1    1    2 ar
     2    1    6 ar
     3    1   22 1
     4    2    8 ar
     5    2   23 1
     6    3    4 2
     7    3   21 1
     8    3   24 1
     9    4    5 1
    10    4   19 1
    11    5    7 2
    12    5   20 1
    13    6    9 1
    14    6   14 ar
    15    7   10 1
    16    7   21 1
    17    8   13 1
    18    8   15 ar
    19    9   16 1
    20    9   17 2
    21   10   16 2
    22   10   18 1
    23   11   12 1
    24   11   19 1
    25   11   25 1
    26   11   26 1
    27   12   20 1
    28   12   27 1
    29   12   28 1
    30   13   29 1
    31   13   30 1
    32   13   31 1
    33   14   15 ar
    34   17   18 1
