@<TRIPOS>MOLECULE
*****
   20    21     0     0     0
SMALL
NO_CHARGES

@<TRIPOS>ATOM
      1 C1          1.9030   -0.5987   -0.1413 C.ar      1 <0>         0.0000
      2 C2          0.9293   -0.0242    0.6717 C.ar      1 <0>         0.0000
      3 C3          4.9595   -5.5674   -1.0705 C.2       1 <0>         0.0000
      4 C4          3.7513   -6.0481   -0.6189 C.2       1 <0>         0.0000
      5 C5          2.7743   -1.5862    0.3456 C.ar      1 <0>         0.0000
      6 C6          0.8416   -0.4237    2.0028 C.ar      1 <0>         0.0000
      7 C7          2.6706   -1.9528    1.6908 C.ar      1 <0>         0.0000
      8 C8          1.7117   -1.3796    2.5253 C.ar      1 <0>         0.0000
      9 C9          4.0067   -3.6264   -0.6252 C.2       1 <0>         0.0000
     10 C10         3.8112   -2.1483   -0.5874 C.2       1 <0>         0.0000
     11 N1          5.0888   -4.2071   -1.0803 N.2       1 <0>         0.0000
     12 O1          4.4241   -1.4122   -1.3443 O.2       1 <0>         0.0000
     13 F1         -0.0809    0.1168    2.8172 F         1 <0>         0.0000
     14 F2          3.5230   -2.8393    2.2370 F         1 <0>         0.0000
     15 F3          1.6402   -1.7334    3.8166 F         1 <0>         0.0000
     16 S1          2.7271   -4.7427   -0.1646 S.3       1 <0>         0.0000
     17 H1          2.0035   -0.2916   -1.1770 H         1 <0>         0.0000
     18 H2          0.2417    0.7278    0.2986 H         1 <0>         0.0000
     19 H3          5.7842   -6.1857   -1.4085 H         1 <0>         0.0000
     20 H4          3.4238   -7.0770   -0.5414 H         1 <0>         0.0000
@<TRIPOS>BOND
     1    1    2 ar
     2    1    5 ar
     3    1   17 1
     4    2    6 ar
     5    2   18 1
     6    3    4 2
     7    3   11 1
     8    3   19 1
     9    4   16 1
    10    4   20 1
    11    5    7 ar
    12    5   10 1
    13    6    8 ar
    14    6   13 1
    15    7    8 ar
    16    7   14 1
    17    8   15 1
    18    9   10 1
    19    9   11 2
    20    9   16 1
    21   10   12 2
