@<TRIPOS>MOLECULE
*****
   61    63     0     0     0
SMALL
NO_CHARGES

@<TRIPOS>ATOM
      1 C1          9.1009   -6.7467    0.0091 C.ar      1 <0>         0.0000
      2 C2         10.3091   -5.8679   -1.9007 C.ar      1 <0>         0.0000
      3 C3         10.0333   -7.7868    0.1088 C.ar      1 <0>         0.0000
      4 C4         11.2350   -6.9019   -1.8010 C.ar      1 <0>         0.0000
      5 C5          9.2360   -5.7813   -0.9983 C.ar      1 <0>         0.0000
      6 C6         11.0921   -7.8604   -0.7918 C.ar      1 <0>         0.0000
      7 C7         -1.3500   -2.2055    1.5528 C.3       1 <0>         0.0000
      8 C8         -1.8504   -0.9280    0.8680 C.3       1 <0>         0.0000
      9 C9          0.1353   -2.0948    1.9011 C.3       1 <0>         0.0000
     10 C10         0.4972   -0.4928    0.1369 C.3       1 <0>         0.0000
     11 C11         2.8745   -3.6408   -0.7621 C.3       1 <0>         0.0000
     12 C12         3.1276   -2.1961   -0.3311 C.3       1 <0>         0.0000
     13 C13        -0.9705   -0.5167   -0.3323 C.3       1 <0>         0.0000
     14 C14         5.2643   -3.1661    0.2811 C.3       1 <0>         0.0000
     15 C15        -1.1305   -1.5042   -1.5020 C.3       1 <0>         0.0000
     16 C16        -1.3654    0.8921   -0.8005 C.3       1 <0>         0.0000
     17 C17         5.6650   -2.9703    1.7489 C.3       1 <0>         0.0000
     18 C18         5.9881   -3.5191   -2.1435 C.3       1 <0>         0.0000
     19 C19         7.3864   -2.0948   -0.6321 C.3       1 <0>         0.0000
     20 C20         2.3624   -1.8218    0.9477 C.3       1 <0>         0.0000
     21 C21         7.2873   -4.5839   -0.2796 C.3       1 <0>         0.0000
     22 C22         6.4805   -3.3436   -0.6953 C.3       1 <0>         0.0000
     23 N1          0.9226   -1.7741    0.7069 N.3       1 <0>         0.0000
     24 O1          4.5392   -2.0177   -0.1662 O.3       1 <0>         0.0000
     25 O2          8.3865   -4.7293   -1.1845 O.3       1 <0>         0.0000
     26 S1          4.0658   -4.6175    0.2131 S.3       1 <0>         0.0000
     27 Cl1        12.2617   -9.1688   -0.6630 Cl        1 <0>         0.0000
     28 H1          8.2820   -6.7092    0.7176 H         1 <0>         0.0000
     29 H2         10.4011   -5.1131   -2.6761 H         1 <0>         0.0000
     30 H3          9.9287   -8.5354    0.8879 H         1 <0>         0.0000
     31 H4         12.0630   -6.9661   -2.4999 H         1 <0>         0.0000
     32 H5         -1.9243   -2.3923    2.4675 H         1 <0>         0.0000
     33 H6         -1.4979   -3.0716    0.8989 H         1 <0>         0.0000
     34 H7         -2.8913   -1.0485    0.5437 H         1 <0>         0.0000
     35 H8         -1.8431   -0.1091    1.6007 H         1 <0>         0.0000
     36 H9          0.2735   -1.3260    2.6883 H         1 <0>         0.0000
     37 H10         0.4967   -3.0445    2.3088 H         1 <0>         0.0000
     38 H11         1.1418   -0.2494   -0.7143 H         1 <0>         0.0000
     39 H12         0.6264    0.3219    0.8777 H         1 <0>         0.0000
     40 H13         1.8560   -3.9426   -0.5117 H         1 <0>         0.0000
     41 H14         3.0468   -3.7792   -1.8315 H         1 <0>         0.0000
     42 H15         2.8447   -1.5152   -1.1397 H         1 <0>         0.0000
     43 H16        -0.5465   -1.1721   -2.3686 H         1 <0>         0.0000
     44 H17        -2.1792   -1.5719   -1.8133 H         1 <0>         0.0000
     45 H18        -0.7835   -2.5047   -1.2345 H         1 <0>         0.0000
     46 H19        -0.7450    1.2190   -1.6434 H         1 <0>         0.0000
     47 H20        -1.2536    1.6270    0.0050 H         1 <0>         0.0000
     48 H21        -2.4105    0.9131   -1.1296 H         1 <0>         0.0000
     49 H22         4.7751   -2.7611    2.3436 H         1 <0>         0.0000
     50 H23         6.3517   -2.1269    1.8521 H         1 <0>         0.0000
     51 H24         6.1410   -3.8629    2.1638 H         1 <0>         0.0000
     52 H25         6.8433   -3.6218   -2.8148 H         1 <0>         0.0000
     53 H26         5.3679   -4.4134   -2.2496 H         1 <0>         0.0000
     54 H27         5.4084   -2.6468   -2.4545 H         1 <0>         0.0000
     55 H28         8.1605   -2.1642   -1.4000 H         1 <0>         0.0000
     56 H29         7.8932   -1.9985    0.3326 H         1 <0>         0.0000
     57 H30         6.7999   -1.1901   -0.8085 H         1 <0>         0.0000
     58 H31         2.7630   -0.8678    1.3310 H         1 <0>         0.0000
     59 H32         2.5641   -2.5856    1.7037 H         1 <0>         0.0000
     60 H33         6.6549   -5.4789   -0.3213 H         1 <0>         0.0000
     61 H34         7.6803   -4.4738    0.7380 H         1 <0>         0.0000
@<TRIPOS>BOND
     1    1    3 ar
     2    1    5 ar
     3    1   28 1
     4    2    4 ar
     5    2    5 ar
     6    2   29 1
     7    3    6 ar
     8    3   30 1
     9    4    6 ar
    10    4   31 1
    11    5   25 1
    12    6   27 1
    13    7    8 1
    14    7    9 1
    15    7   32 1
    16    7   33 1
    17    8   13 1
    18    8   34 1
    19    8   35 1
    20    9   23 1
    21    9   36 1
    22    9   37 1
    23   10   13 1
    24   10   23 1
    25   10   38 1
    26   10   39 1
    27   11   12 1
    28   11   26 1
    29   11   40 1
    30   11   41 1
    31   12   20 1
    32   12   24 1
    33   12   42 1
    34   13   15 1
    35   13   16 1
    36   14   17 1
    37   14   22 1
    38   14   24 1
    39   14   26 1
    40   15   43 1
    41   15   44 1
    42   15   45 1
    43   16   46 1
    44   16   47 1
    45   16   48 1
    46   17   49 1
    47   17   50 1
    48   17   51 1
    49   18   22 1
    50   18   52 1
    51   18   53 1
    52   18   54 1
    53   19   22 1
    54   19   55 1
    55   19   56 1
    56   19   57 1
    57   20   23 1
    58   20   58 1
    59   20   59 1
    60   21   22 1
    61   21   25 1
    62   21   60 1
    63   21   61 1
