@<TRIPOS>MOLECULE
*****
   48    50     0     0     0
SMALL
NO_CHARGES

@<TRIPOS>ATOM
      1 C1         -3.1885   -2.2724    0.9696 C.ar      1 <0>         0.0000
      2 C2          3.5467   -2.0720    0.2958 C.ar      1 <0>         0.0000
      3 C3         -2.0469   -2.2265    0.1628 C.ar      1 <0>         0.0000
      4 C4          2.2699   -2.1348   -0.2697 C.ar      1 <0>         0.0000
      5 C5         -3.0418    0.1036    1.2862 C.ar      1 <0>         0.0000
      6 C6          2.0537    0.2558    0.0160 C.ar      1 <0>         0.0000
      7 C7         -1.9056    0.1734    0.4773 C.ar      1 <0>         0.0000
      8 C8         -3.7057   -1.1063    1.5427 C.ar      1 <0>         0.0000
      9 C9          4.0959   -0.8565    0.7145 C.ar      1 <0>         0.0000
     10 C10         3.3419    0.3158    0.5500 C.ar      1 <0>         0.0000
     11 C11         1.5054   -0.9726   -0.3918 C.ar      1 <0>         0.0000
     12 C12        -1.3959   -1.0162   -0.0907 C.ar      1 <0>         0.0000
     13 C13         1.1650    1.4555   -0.1026 C.2       1 <0>         0.0000
     14 C14         3.1018   -0.4697    3.9768 C.2       1 <0>         0.0000
     15 C15         4.3752   -0.1757    3.6837 C.2       1 <0>         0.0000
     16 C16        -1.2096    1.4976    0.2770 C.3       1 <0>         0.0000
     17 C17        -4.9211   -1.1417    2.4390 C.3       1 <0>         0.0000
     18 C18         5.0037    1.1468    4.0453 C.3       1 <0>         0.0000
     19 C19         4.4704    2.2985   -0.0751 C.3       1 <0>         0.0000
     20 C20         5.2467   -1.1563    2.9313 C.3       1 <0>         0.0000
     21 C21         5.4273   -0.8215    1.4280 C.3       1 <0>         0.0000
     22 O1          1.2761    2.3655   -0.8940 O.2       1 <0>         0.0000
     23 O2          0.1380    1.3161    0.7781 O.3       1 <0>         0.0000
     24 O3          6.2830   -1.7900    0.8034 O.3       1 <0>         0.0000
     25 O4          3.8468    1.5300    0.9731 O.3       1 <0>         0.0000
     26 S1         -0.0576   -1.0250   -1.3038 S.3       1 <0>         0.0000
     27 H1         -3.6775   -3.2271    1.1497 H         1 <0>         0.0000
     28 H2          4.1389   -2.9752    0.4046 H         1 <0>         0.0000
     29 H3         -1.6613   -3.1376   -0.2851 H         1 <0>         0.0000
     30 H4          1.8658   -3.0811   -0.6159 H         1 <0>         0.0000
     31 H5         -3.4216    1.0201    1.7350 H         1 <0>         0.0000
     32 H6          2.6576   -1.4214    3.6945 H         1 <0>         0.0000
     33 H7          2.4569    0.2408    4.4883 H         1 <0>         0.0000
     34 H8         -1.1609    1.7977   -0.7728 H         1 <0>         0.0000
     35 H9         -1.6900    2.2907    0.8534 H         1 <0>         0.0000
     36 H10        -4.6296   -1.0768    3.4941 H         1 <0>         0.0000
     37 H11        -5.5923   -0.3016    2.2343 H         1 <0>         0.0000
     38 H12        -5.4870   -2.0681    2.3083 H         1 <0>         0.0000
     39 H13         5.8887    0.9996    4.6778 H         1 <0>         0.0000
     40 H14         4.3010    1.7902    4.5810 H         1 <0>         0.0000
     41 H15         5.3263    1.6813    3.1453 H         1 <0>         0.0000
     42 H16         4.8458    3.2068    0.4003 H         1 <0>         0.0000
     43 H17         3.7426    2.5569   -0.8492 H         1 <0>         0.0000
     44 H18         5.3044    1.7400   -0.5179 H         1 <0>         0.0000
     45 H19         4.8300   -2.1662    2.9929 H         1 <0>         0.0000
     46 H20         6.2475   -1.1827    3.3881 H         1 <0>         0.0000
     47 H21         5.8647    0.1778    1.3320 H         1 <0>         0.0000
     48 H22         7.0990   -1.8426    1.3256 H         1 <0>         0.0000
@<TRIPOS>BOND
     1    1    3 ar
     2    1    8 ar
     3    1   27 1
     4    2    4 ar
     5    2    9 ar
     6    2   28 1
     7    3   12 ar
     8    3   29 1
     9    4   11 ar
    10    4   30 1
    11    5    7 ar
    12    5    8 ar
    13    5   31 1
    14    6   10 ar
    15    6   11 ar
    16    6   13 1
    17    7   12 ar
    18    7   16 1
    19    8   17 1
    20    9   10 ar
    21    9   21 1
    22   10   25 1
    23   11   26 1
    24   12   26 1
    25   13   22 2
    26   13   23 1
    27   14   15 2
    28   14   32 1
    29   14   33 1
    30   15   18 1
    31   15   20 1
    32   16   23 1
    33   16   34 1
    34   16   35 1
    35   17   36 1
    36   17   37 1
    37   17   38 1
    38   18   39 1
    39   18   40 1
    40   18   41 1
    41   19   25 1
    42   19   42 1
    43   19   43 1
    44   19   44 1
    45   20   21 1
    46   20   45 1
    47   20   46 1
    48   21   24 1
    49   21   47 1
    50   24   48 1
