@<TRIPOS>MOLECULE
*****
   39    40     0     0     0
SMALL
NO_CHARGES

@<TRIPOS>ATOM
      1 C1          5.9723   -0.3500   -8.4325 C.ar      1 <0>         0.0000
      2 C2          4.7128   -0.8706   -8.7469 C.ar      1 <0>         0.0000
      3 C3          6.6703   -0.8695   -7.3334 C.ar      1 <0>         0.0000
      4 C4          4.1599   -1.8892   -7.9626 C.ar      1 <0>         0.0000
      5 C5          6.1192   -1.8881   -6.5541 C.ar      1 <0>         0.0000
      6 C6          4.8460   -2.4087   -6.8535 C.ar      1 <0>         0.0000
      7 C7          5.1464   -4.8978   -6.2873 C.2       1 <0>         0.0000
      8 C8          4.1745   -3.2703   -4.5862 C.2       1 <0>         0.0000
      9 C9         -0.0226   -1.7657   -0.5627 C.3       1 <0>         0.0000
     10 C10         1.3992   -1.7343    0.0175 C.3       1 <0>         0.0000
     11 C11         0.0034   -1.7728   -2.0983 C.3       1 <0>         0.0000
     12 C12         2.2584   -2.8818   -0.5340 C.3       1 <0>         0.0000
     13 C13         0.8626   -2.9239   -2.6395 C.3       1 <0>         0.0000
     14 C14         2.2889   -2.8838   -2.0706 C.3       1 <0>         0.0000
     15 C15         3.1440   -4.0437   -2.5832 C.3       1 <0>         0.0000
     16 C16         4.2516   -3.5317   -6.0566 C.3       1 <0>         0.0000
     17 O1          6.1672   -4.9695   -5.5698 O.co2     1 <0>         0.0000
     18 O2          4.6736   -5.6443   -7.1673 O.co2     1 <0>         0.0000
     19 O3          4.8397   -2.4954   -3.9188 O.2       1 <0>         0.0000
     20 O4          3.2226   -4.0826   -4.0155 O.3       1 <0>         0.0000
     21 H1          6.4077    0.4428   -9.0382 H         1 <0>         0.0000
     22 H2          4.1609   -0.4867   -9.6033 H         1 <0>         0.0000
     23 H3          7.6576   -0.4814   -7.0880 H         1 <0>         0.0000
     24 H4          3.1839   -2.2976   -8.2174 H         1 <0>         0.0000
     25 H5          6.6658   -2.3085   -5.7182 H         1 <0>         0.0000
     26 H6         -0.6031   -0.9105   -0.1927 H         1 <0>         0.0000
     27 H7         -0.5354   -2.6716   -0.2080 H         1 <0>         0.0000
     28 H8          1.8724   -0.7775   -0.2429 H         1 <0>         0.0000
     29 H9          1.3637   -1.7796    1.1137 H         1 <0>         0.0000
     30 H10        -1.0177   -1.8421   -2.4944 H         1 <0>         0.0000
     31 H11         0.4146   -0.8186   -2.4561 H         1 <0>         0.0000
     32 H12         3.2802   -2.8092   -0.1413 H         1 <0>         0.0000
     33 H13         1.8509   -3.8406   -0.1785 H         1 <0>         0.0000
     34 H14         0.3959   -3.8834   -2.3687 H         1 <0>         0.0000
     35 H15         0.9028   -2.8941   -3.7328 H         1 <0>         0.0000
     36 H16         2.7713   -1.9568   -2.4035 H         1 <0>         0.0000
     37 H17         2.6946   -5.0024   -2.3011 H         1 <0>         0.0000
     38 H18         4.1535   -3.9848   -2.1671 H         1 <0>         0.0000
     39 H19         3.2535   -3.7758   -6.4207 H         1 <0>         0.0000
@<TRIPOS>BOND
     1    1    3 ar
     2    1    2 ar
     3    1   21 1
     4    2    4 ar
     5    2   22 1
     6    3    5 ar
     7    3   23 1
     8    4    6 ar
     9    4   24 1
    10    5    6 ar
    11    5   25 1
    12    6   16 1
    13    7   16 1
    14    7   17 1
    15    7   18 2
    16    8   16 1
    17    8   19 2
    18    8   20 1
    19    9   11 1
    20    9   10 1
    21    9   26 1
    22    9   27 1
    23   10   12 1
    24   10   28 1
    25   10   29 1
    26   11   13 1
    27   11   30 1
    28   11   31 1
    29   12   14 1
    30   12   32 1
    31   12   33 1
    32   13   14 1
    33   13   34 1
    34   13   35 1
    35   14   15 1
    36   14   36 1
    37   15   20 1
    38   15   37 1
    39   15   38 1
    40   16   39 1
