@<TRIPOS>MOLECULE
*****
   29    31     0     0     0
SMALL
NO_CHARGES

@<TRIPOS>ATOM
      1 C1         -1.0940    1.3239   -1.9864 C.ar      1 <0>         0.0000
      2 C2         -0.5058    2.3969   -1.3078 C.ar      1 <0>         0.0000
      3 C3         -0.0278   -0.1346   -0.3508 C.ar      1 <0>         0.0000
      4 C4          0.5749    0.9245    0.3363 C.ar      1 <0>         0.0000
      5 C5          0.0554   -1.5272   -0.0550 C.2       1 <0>         0.0000
      6 C6         -0.8425    0.0391   -1.4897 C.ar      1 <0>         0.0000
      7 C7          0.3058    2.1826   -0.1780 C.ar      1 <0>         0.0000
      8 C8         -0.6871   -2.1911   -1.0103 C.2       1 <0>         0.0000
      9 C9          2.1563   -2.6206    0.6207 C.2       1 <0>         0.0000
     10 C10         1.4532    0.5641    1.5109 C.3       1 <0>         0.0000
     11 C11         1.0589   -0.8038    2.1200 C.3       1 <0>         0.0000
     12 C12         0.8702   -1.9891    1.1290 C.3       1 <0>         0.0000
     13 C13        -0.9400   -3.6513   -1.2018 C.3       1 <0>         0.0000
     14 N1         -1.2315   -1.2392   -1.8778 N.pl3     1 <0>         0.0000
     15 O1          2.3029   -3.8117    0.4153 O.2       1 <0>         0.0000
     16 O2          3.1439   -1.7206    0.3692 O.3       1 <0>         0.0000
     17 F1          0.8506    3.2810    0.4290 F         1 <0>         0.0000
     18 H1         -1.7164    1.5013   -2.8594 H         1 <0>         0.0000
     19 H2         -0.6639    3.4172   -1.6436 H         1 <0>         0.0000
     20 H3          2.4969    0.5341    1.1822 H         1 <0>         0.0000
     21 H4          1.3892    1.3311    2.2889 H         1 <0>         0.0000
     22 H5          1.7948   -1.0825    2.8811 H         1 <0>         0.0000
     23 H6          0.0989   -0.6844    2.6346 H         1 <0>         0.0000
     24 H7          0.3567   -2.7996    1.6539 H         1 <0>         0.0000
     25 H8         -2.0051   -3.8945   -1.1018 H         1 <0>         0.0000
     26 H9         -0.6123   -3.9878   -2.1928 H         1 <0>         0.0000
     27 H10        -0.3822   -4.2272   -0.4612 H         1 <0>         0.0000
     28 H11        -1.8296   -1.4601   -2.6613 H         1 <0>         0.0000
     29 H12         3.8911   -2.2335    0.0047 H         1 <0>         0.0000
@<TRIPOS>BOND
     1    1    2 ar
     2    1    6 ar
     3    1   18 1
     4    2    7 ar
     5    2   19 1
     6    3    4 ar
     7    3    5 1
     8    3    6 ar
     9    4    7 ar
    10    4   10 1
    11    5    8 2
    12    5   12 1
    13    6   14 1
    14    7   17 1
    15    8   13 1
    16    8   14 1
    17    9   12 1
    18    9   15 2
    19    9   16 1
    20   10   11 1
    21   10   20 1
    22   10   21 1
    23   11   12 1
    24   11   22 1
    25   11   23 1
    26   12   24 1
    27   13   25 1
    28   13   26 1
    29   13   27 1
    30   14   28 1
    31   16   29 1
