@<TRIPOS>MOLECULE
*****
   44    47     0     0     0
SMALL
NO_CHARGES

@<TRIPOS>ATOM
      1 C1          3.8208   -3.6691    0.1862 C.1       1 <0>         0.0000
      2 C2          1.2584    2.5553    2.9231 C.ar      1 <0>         0.0000
      3 C3          2.0234    1.3806    3.1243 C.ar      1 <0>         0.0000
      4 C4          0.3031    2.6662    1.9067 C.ar      1 <0>         0.0000
      5 C5          0.8826    0.3802    1.2904 C.ar      1 <0>         0.0000
      6 C6          1.8388    0.2720    2.3018 C.ar      1 <0>         0.0000
      7 C7          0.5408   -0.5840    0.2945 C.2       1 <0>         0.0000
      8 C8          0.1199    1.5500    1.0794 C.ar      1 <0>         0.0000
      9 C9         -0.4192    0.0029   -0.4985 C.2       1 <0>         0.0000
     10 C10         2.0002   -1.9538    3.4587 C.2       1 <0>         0.0000
     11 C11         1.9931   -3.2890    3.3677 C.2       1 <0>         0.0000
     12 C12        -0.2678   -5.8063    4.7206 C.2       1 <0>         0.0000
     13 C13         1.2127   -1.9247    0.3374 C.3       1 <0>         0.0000
     14 C14         2.5716   -4.0231    2.1867 C.3       1 <0>         0.0000
     15 C15         2.5816   -1.0487    2.3934 C.3       1 <0>         0.0000
     16 C16         2.5972   -1.7816    1.0261 C.3       1 <0>         0.0000
     17 C17        -1.3655   -6.5685    4.0185 C.3       1 <0>         0.0000
     18 C18        -1.1882   -0.5249   -1.6629 C.3       1 <0>         0.0000
     19 C19         1.4179   -4.1493    4.4520 C.3       1 <0>         0.0000
     20 N1          4.3639   -4.1617   -0.7264 N.1       1 <0>         0.0000
     21 N2         -0.7040    1.2811   -0.0034 N.pl3     1 <0>         0.0000
     22 N3          3.2325   -3.1009    1.2446 N.3       1 <0>         0.0000
     23 O1          0.0497   -5.9303    5.8869 O.2       1 <0>         0.0000
     24 O2         -1.4062    0.5575   -2.5823 O.3       1 <0>         0.0000
     25 O3          0.3394   -4.9371    3.8714 O.3       1 <0>         0.0000
     26 H1          1.4256    3.4064    3.5779 H         1 <0>         0.0000
     27 H2          2.7645    1.3592    3.9208 H         1 <0>         0.0000
     28 H3         -0.2614    3.5854    1.7735 H         1 <0>         0.0000
     29 H4          1.5696   -1.4699    4.3332 H         1 <0>         0.0000
     30 H5          0.6020   -2.6374    0.9048 H         1 <0>         0.0000
     31 H6          1.3645   -2.3524   -0.6597 H         1 <0>         0.0000
     32 H7          3.3233   -4.7424    2.5313 H         1 <0>         0.0000
     33 H8          1.7815   -4.6035    1.6907 H         1 <0>         0.0000
     34 H9          3.6279   -0.8450    2.6564 H         1 <0>         0.0000
     35 H10         3.2565   -1.2264    0.3544 H         1 <0>         0.0000
     36 H11        -2.1130   -5.8714    3.6290 H         1 <0>         0.0000
     37 H12        -1.8315   -7.2608    4.7190 H         1 <0>         0.0000
     38 H13        -0.9541   -7.1186    3.1672 H         1 <0>         0.0000
     39 H14        -0.6215   -1.3414   -2.1292 H         1 <0>         0.0000
     40 H15        -2.1554   -0.9309   -1.3279 H         1 <0>         0.0000
     41 H16         1.0219   -3.5479    5.2730 H         1 <0>         0.0000
     42 H17         2.1596   -4.8423    4.8638 H         1 <0>         0.0000
     43 H18        -1.2134    1.9633   -0.5497 H         1 <0>         0.0000
     44 H19        -2.0236    0.2557   -3.2665 H         1 <0>         0.0000
@<TRIPOS>BOND
     1    1   20 3
     2    1   22 1
     3    2    3 ar
     4    2    4 ar
     5    2   26 1
     6    3    6 ar
     7    3   27 1
     8    4    8 ar
     9    4   28 1
    10    5    6 ar
    11    5    7 1
    12    5    8 ar
    13    6   15 1
    14    7    9 2
    15    7   13 1
    16    8   21 1
    17    9   18 1
    18    9   21 1
    19   10   11 2
    20   10   15 1
    21   10   29 1
    22   11   14 1
    23   11   19 1
    24   12   17 1
    25   12   23 2
    26   12   25 1
    27   13   16 1
    28   13   30 1
    29   13   31 1
    30   14   22 1
    31   14   32 1
    32   14   33 1
    33   15   16 1
    34   15   34 1
    35   16   22 1
    36   16   35 1
    37   17   36 1
    38   17   37 1
    39   17   38 1
    40   18   24 1
    41   18   39 1
    42   18   40 1
    43   19   25 1
    44   19   41 1
    45   19   42 1
    46   21   43 1
    47   24   44 1
