@<TRIPOS>MOLECULE
*****
   40    41     0     0     0
SMALL
NO_CHARGES

@<TRIPOS>ATOM
      1 C1          6.8421   -9.4030   -2.9824 C.ar      1 <0>         0.0000
      2 C2          7.0601   -8.4104   -2.0213 C.ar      1 <0>         0.0000
      3 C3          5.5823   -9.5260   -3.5769 C.ar      1 <0>         0.0000
      4 C4          6.0268   -7.5445   -1.6521 C.ar      1 <0>         0.0000
      5 C5          4.5475   -8.6620   -3.2082 C.ar      1 <0>         0.0000
      6 C6          4.7567   -7.6645   -2.2438 C.ar      1 <0>         0.0000
      7 C7          3.0170   -7.0426   -0.4249 C.2       1 <0>         0.0000
      8 C8          3.9595   -5.2839   -1.8896 C.2       1 <0>         0.0000
      9 C9          1.0765   -0.4796   -0.2798 C.3       1 <0>         0.0000
     10 C10         1.1173   -0.2028   -1.7891 C.3       1 <0>         0.0000
     11 C11         0.9928   -1.9851    0.0055 C.3       1 <0>         0.0000
     12 C12         2.2569   -0.9736   -2.4709 C.3       1 <0>         0.0000
     13 C13         2.1332   -2.7560   -0.6736 C.3       1 <0>         0.0000
     14 C14         2.1699   -2.4840   -2.1868 C.3       1 <0>         0.0000
     15 C15         3.3249   -3.1961   -2.8836 C.3       1 <0>         0.0000
     16 C16         3.6011   -6.7711   -1.8334 C.3       1 <0>         0.0000
     17 O1          2.1152   -6.3743    0.0254 O.2       1 <0>         0.0000
     18 O2          4.8363   -4.7753   -1.2191 O.2       1 <0>         0.0000
     19 O3          3.5277   -8.0864    0.2627 O.3       1 <0>         0.0000
     20 O4          3.1796   -4.6429   -2.7738 O.3       1 <0>         0.0000
     21 H1          7.6477  -10.0745   -3.2668 H         1 <0>         0.0000
     22 H2          8.0377   -8.3065   -1.5581 H         1 <0>         0.0000
     23 H3          5.4044  -10.2926   -4.3263 H         1 <0>         0.0000
     24 H4          6.2033   -6.7622   -0.9204 H         1 <0>         0.0000
     25 H5          3.5692   -8.7629   -3.6723 H         1 <0>         0.0000
     26 H6          0.2285    0.0441    0.1773 H         1 <0>         0.0000
     27 H7          1.9854   -0.0734    0.1857 H         1 <0>         0.0000
     28 H8          0.1608   -0.5037   -2.2383 H         1 <0>         0.0000
     29 H9          1.2288    0.8713   -1.9786 H         1 <0>         0.0000
     30 H10         1.0136   -2.1711    1.0852 H         1 <0>         0.0000
     31 H11         0.0301   -2.3701   -0.3582 H         1 <0>         0.0000
     32 H12         2.2408   -0.7899   -3.5529 H         1 <0>         0.0000
     33 H13         3.2202   -0.5940   -2.1009 H         1 <0>         0.0000
     34 H14         3.0938   -2.4537   -0.2346 H         1 <0>         0.0000
     35 H15         2.0210   -3.8266   -0.4801 H         1 <0>         0.0000
     36 H16         1.2354   -2.8611   -2.6267 H         1 <0>         0.0000
     37 H17         4.2900   -2.9053   -2.4645 H         1 <0>         0.0000
     38 H18         3.3184   -2.9979   -3.9586 H         1 <0>         0.0000
     39 H19         2.7627   -6.9324   -2.5142 H         1 <0>         0.0000
     40 H20         4.2628   -8.4821   -0.2444 H         1 <0>         0.0000
@<TRIPOS>BOND
     1    1    3 ar
     2    1    2 ar
     3    1   21 1
     4    2    4 ar
     5    2   22 1
     6    3    5 ar
     7    3   23 1
     8    4    6 ar
     9    4   24 1
    10    5    6 ar
    11    5   25 1
    12    6   16 1
    13    7   16 1
    14    7   17 2
    15    7   19 1
    16    8   16 1
    17    8   18 2
    18    8   20 1
    19    9   11 1
    20    9   10 1
    21    9   26 1
    22    9   27 1
    23   10   12 1
    24   10   28 1
    25   10   29 1
    26   11   13 1
    27   11   30 1
    28   11   31 1
    29   12   14 1
    30   12   32 1
    31   12   33 1
    32   13   14 1
    33   13   34 1
    34   13   35 1
    35   14   15 1
    36   14   36 1
    37   15   20 1
    38   15   37 1
    39   15   38 1
    40   16   39 1
    41   19   40 1
