@<TRIPOS>MOLECULE
*****
   31    34     0     0     0
SMALL
NO_CHARGES

@<TRIPOS>ATOM
      1 C1         -0.5520    4.9153    0.2193 C.ar      1 <0>         0.0000
      2 C2         -0.8637    6.0701    0.9049 C.ar      1 <0>         0.0000
      3 C3          2.0037   -3.0231    0.9707 C.2       1 <0>         0.0000
      4 C4          1.9218   -2.9985   -0.3970 C.2       1 <0>         0.0000
      5 C5          1.4917   -1.7288   -0.9034 C.2       1 <0>         0.0000
      6 C6         -0.1397    3.8076    0.9854 C.ar      1 <0>         0.0000
      7 C7          1.2465   -0.8112    0.1031 C.2       1 <0>         0.0000
      8 C8         -0.7481    6.0573    2.3090 C.ar      1 <0>         0.0000
      9 C9          0.2123    2.5337    0.3267 C.2       1 <0>         0.0000
     10 C10         0.8100    0.5526   -0.0007 C.2       1 <0>         0.0000
     11 C11         1.6672   -3.8811   -2.5352 C.3       1 <0>         0.0000
     12 C12         1.9543   -2.4843   -3.0620 C.3       1 <0>         0.0000
     13 C13        -1.0660    7.2719    3.1399 C.3       1 <0>         0.0000
     14 N1         -0.0449    3.8427    2.3192 N.ar      1 <0>         0.0000
     15 N2         -0.3486    4.9639    2.9760 N.ar      1 <0>         0.0000
     16 N3          0.6148    1.3967    0.9845 N.2       1 <0>         0.0000
     17 N4          0.1556    2.4176   -0.9870 N.2       1 <0>         0.0000
     18 O1          0.5543    1.0910   -1.2193 O.3       1 <0>         0.0000
     19 O2          2.2218   -4.0533   -1.2190 O.3       1 <0>         0.0000
     20 O3          1.3364   -1.4810   -2.2305 O.3       1 <0>         0.0000
     21 S1          1.5589   -1.5069    1.6784 S.3       1 <0>         0.0000
     22 H1         -0.6149    4.8417   -0.8616 H         1 <0>         0.0000
     23 H2         -1.1899    6.9680    0.3860 H         1 <0>         0.0000
     24 H3          2.2988   -3.8592    1.5908 H         1 <0>         0.0000
     25 H4          0.5855   -4.0624   -2.5030 H         1 <0>         0.0000
     26 H5          2.1415   -4.6356   -3.1657 H         1 <0>         0.0000
     27 H6          3.0350   -2.3031   -3.0971 H         1 <0>         0.0000
     28 H7          1.5306   -2.3470   -4.0585 H         1 <0>         0.0000
     29 H8         -2.1001    7.5963    2.9795 H         1 <0>         0.0000
     30 H9         -0.9268    7.0418    4.1973 H         1 <0>         0.0000
     31 H10        -0.4141    8.1105    2.8709 H         1 <0>         0.0000
@<TRIPOS>BOND
     1    1    2 ar
     2    1    6 ar
     3    1   22 1
     4    2    8 ar
     5    2   23 1
     6    3    4 2
     7    3   21 1
     8    3   24 1
     9    4    5 1
    10    4   19 1
    11    5    7 2
    12    5   20 1
    13    6    9 1
    14    6   14 ar
    15    7   10 1
    16    7   21 1
    17    8   13 1
    18    8   15 ar
    19    9   16 1
    20    9   17 2
    21   10   16 2
    22   10   18 1
    23   11   12 1
    24   11   19 1
    25   11   25 1
    26   11   26 1
    27   12   20 1
    28   12   27 1
    29   12   28 1
    30   13   29 1
    31   13   30 1
    32   13   31 1
    33   14   15 ar
    34   17   18 1
