@<TRIPOS>MOLECULE
*****
   36    39     0     0     0
SMALL
NO_CHARGES

@<TRIPOS>ATOM
      1 C1         -7.2655   -4.0487    3.9343 C.2       1 <0>         0.0000
      2 C2         -5.2294   -4.3723    3.5626 C.2       1 <0>         0.0000
      3 C3         -2.2710   -3.1318    3.1561 C.2       1 <0>         0.0000
      4 C4         -2.7471   -4.5990    1.4246 C.2       1 <0>         0.0000
      5 C5          0.2281   -1.2752    0.9285 C.3       1 <0>         0.0000
      6 C6         -1.1388   -0.6915    0.4618 C.3       1 <0>         0.0000
      7 C7         -9.3259   -5.3961    4.6623 C.3       1 <0>         0.0000
      8 C8         -8.9761   -4.4840    5.7987 C.3       1 <0>         0.0000
      9 C9         -0.1001   -2.2726    2.0685 C.3       1 <0>         0.0000
     10 C10        -2.1835   -1.2369    1.4561 C.3       1 <0>         0.0000
     11 C11        -8.6635   -4.0532    4.3685 C.3       1 <0>         0.0000
     12 C12        -1.5947   -2.5937    1.8973 C.3       1 <0>         0.0000
     13 C13        -3.8637   -4.9952    3.6354 C.3       1 <0>         0.0000
     14 N1         -6.2977   -4.8598    4.2817 N.2       1 <0>         0.0000
     15 N2         -5.4938   -3.3295    2.8142 N.2       1 <0>         0.0000
     16 N3         -1.8542   -3.6748    0.9387 N.am      1 <0>         0.0000
     17 N4         -2.9093   -4.3041    2.7981 N.am      1 <0>         0.0000
     18 O1         -2.2657   -2.6255    4.2645 O.2       1 <0>         0.0000
     19 O2         -3.2885   -5.5197    0.8377 O.2       1 <0>         0.0000
     20 O3         -6.8694   -3.1031    3.0593 O.3       1 <0>         0.0000
     21 H1          0.7348   -1.7812    0.1014 H         1 <0>         0.0000
     22 H2          0.9055   -0.4922    1.2796 H         1 <0>         0.0000
     23 H3         -1.1413    0.4014    0.4363 H         1 <0>         0.0000
     24 H4         -1.3704   -1.0261   -0.5557 H         1 <0>         0.0000
     25 H5         -8.7100   -6.2764    4.5123 H         1 <0>         0.0000
     26 H6        -10.3669   -5.4957    4.3713 H         1 <0>         0.0000
     27 H7         -9.7723   -3.9454    6.3030 H         1 <0>         0.0000
     28 H8         -8.1241   -4.7488    6.4157 H         1 <0>         0.0000
     29 H9          0.5090   -3.1794    2.0451 H         1 <0>         0.0000
     30 H10         0.0271   -1.8022    3.0479 H         1 <0>         0.0000
     31 H11        -2.2474   -0.5996    2.3434 H         1 <0>         0.0000
     32 H12        -3.1899   -1.3415    1.0427 H         1 <0>         0.0000
     33 H13        -9.2721   -3.2711    3.9282 H         1 <0>         0.0000
     34 H14        -3.5119   -4.9683    4.6697 H         1 <0>         0.0000
     35 H15        -3.9258   -6.0366    3.3116 H         1 <0>         0.0000
     36 H16        -1.8274   -3.5313   -0.0625 H         1 <0>         0.0000
@<TRIPOS>BOND
     1    1   11 1
     2    1   14 2
     3    1   20 1
     4    2   13 1
     5    2   14 1
     6    2   15 2
     7    3   12 1
     8    3   17 am
     9    3   18 2
    10    4   16 am
    11    4   17 am
    12    4   19 2
    13    5    6 1
    14    5    9 1
    15    5   21 1
    16    5   22 1
    17    6   10 1
    18    6   23 1
    19    6   24 1
    20    7    8 1
    21    7   11 1
    22    7   25 1
    23    7   26 1
    24    8   11 1
    25    8   27 1
    26    8   28 1
    27    9   12 1
    28    9   29 1
    29    9   30 1
    30   10   12 1
    31   10   31 1
    32   10   32 1
    33   11   33 1
    34   12   16 1
    35   13   17 1
    36   13   34 1
    37   13   35 1
    38   15   20 1
    39   16   36 1
