@<TRIPOS>MOLECULE
*****
   39    40     0     0     0
SMALL
NO_CHARGES

@<TRIPOS>ATOM
      1 C1          4.4112   -0.6951   -9.1383 C.ar      1 <0>         0.0000
      2 C2          3.2303   -1.4415   -9.0715 C.ar      1 <0>         0.0000
      3 C3          5.3904   -0.8778   -8.1520 C.ar      1 <0>         0.0000
      4 C4          3.0328   -2.3483   -8.0243 C.ar      1 <0>         0.0000
      5 C5          5.1938   -1.7858   -7.1100 C.ar      1 <0>         0.0000
      6 C6          4.0024   -2.5307   -7.0254 C.ar      1 <0>         0.0000
      7 C7          4.8391   -4.7962   -6.1483 C.2       1 <0>         0.0000
      8 C8          3.9571   -3.0118   -4.5546 C.2       1 <0>         0.0000
      9 C9          0.7928   -0.7323   -0.1710 C.3       1 <0>         0.0000
     10 C10         0.6439   -0.8751   -1.6926 C.3       1 <0>         0.0000
     11 C11         1.1112   -2.0844    0.4839 C.3       1 <0>         0.0000
     12 C12         1.8822   -1.5276   -2.3222 C.3       1 <0>         0.0000
     13 C13         2.3463   -2.7387   -0.1525 C.3       1 <0>         0.0000
     14 C14         2.1980   -2.8856   -1.6762 C.3       1 <0>         0.0000
     15 C15         3.4494   -3.5365   -2.2677 C.3       1 <0>         0.0000
     16 C16         3.7851   -3.5442   -5.9414 C.3       1 <0>         0.0000
     17 O1          5.9812   -4.5871   -5.6865 O.co2     1 <0>         0.0000
     18 O2          4.3343   -5.7581   -6.7611 O.co2     1 <0>         0.0000
     19 O3          4.5962   -2.0386   -4.1932 O.2       1 <0>         0.0000
     20 O4          3.2826   -3.8176   -3.6640 O.3       1 <0>         0.0000
     21 H1          4.5707    0.0126   -9.9499 H         1 <0>         0.0000
     22 H2          2.4633   -1.3207   -9.8349 H         1 <0>         0.0000
     23 H3          6.3196   -0.3124   -8.2020 H         1 <0>         0.0000
     24 H4          2.1166   -2.9340   -7.9826 H         1 <0>         0.0000
     25 H5          5.9584   -1.9467   -6.3592 H         1 <0>         0.0000
     26 H6         -0.1180   -0.3031    0.2666 H         1 <0>         0.0000
     27 H7          1.6089   -0.0282    0.0452 H         1 <0>         0.0000
     28 H8         -0.2413   -1.4901   -1.9103 H         1 <0>         0.0000
     29 H9          0.4627    0.1058   -2.1493 H         1 <0>         0.0000
     30 H10         1.2631   -1.9589    1.5638 H         1 <0>         0.0000
     31 H11         0.2476   -2.7541    0.3637 H         1 <0>         0.0000
     32 H12         1.7374   -1.6557   -3.3988 H         1 <0>         0.0000
     33 H13         2.7511   -0.8669   -2.2080 H         1 <0>         0.0000
     34 H14         3.2315   -2.1225    0.0624 H         1 <0>         0.0000
     35 H15         2.5301   -3.7200    0.3042 H         1 <0>         0.0000
     36 H16         1.3509   -3.5603   -1.8724 H         1 <0>         0.0000
     37 H17         3.6325   -4.5048   -1.7888 H         1 <0>         0.0000
     38 H18         4.3238   -2.8964   -2.1260 H         1 <0>         0.0000
     39 H19         2.7927   -3.9876   -6.0234 H         1 <0>         0.0000
@<TRIPOS>BOND
     1    1    3 ar
     2    1    2 ar
     3    1   21 1
     4    2    4 ar
     5    2   22 1
     6    3    5 ar
     7    3   23 1
     8    4    6 ar
     9    4   24 1
    10    5    6 ar
    11    5   25 1
    12    6   16 1
    13    7   16 1
    14    7   17 1
    15    7   18 2
    16    8   16 1
    17    8   19 2
    18    8   20 1
    19    9   11 1
    20    9   10 1
    21    9   26 1
    22    9   27 1
    23   10   12 1
    24   10   28 1
    25   10   29 1
    26   11   13 1
    27   11   30 1
    28   11   31 1
    29   12   14 1
    30   12   32 1
    31   12   33 1
    32   13   14 1
    33   13   34 1
    34   13   35 1
    35   14   15 1
    36   14   36 1
    37   15   20 1
    38   15   37 1
    39   15   38 1
    40   16   39 1
