@<TRIPOS>MOLECULE
*****
   39    41     0     0     0
SMALL
NO_CHARGES

@<TRIPOS>ATOM
      1 C1          2.6491   -1.3750    5.8871 C.1       1 <0>         0.0000
      2 C2         -0.6365   -4.5980    3.7385 C.ar      1 <0>         0.0000
      3 C3         -0.6033   -3.4622    2.9227 C.ar      1 <0>         0.0000
      4 C4          0.0586   -4.5999    4.9507 C.ar      1 <0>         0.0000
      5 C5          0.1149   -2.3323    3.3191 C.ar      1 <0>         0.0000
      6 C6          0.7814   -3.4725    5.3478 C.ar      1 <0>         0.0000
      7 C7         -1.6223   -1.9533    7.8701 C.2       1 <0>         0.0000
      8 C8          0.3131   -1.1583    8.1010 C.2       1 <0>         0.0000
      9 C9          0.8103   -2.3359    4.5335 C.ar      1 <0>         0.0000
     10 C10         3.2286    1.1498    1.6584 C.3       1 <0>         0.0000
     11 C11         1.9755    2.0004    2.0269 C.3       1 <0>         0.0000
     12 C12         3.8960    0.7834    3.0040 C.3       1 <0>         0.0000
     13 C13         1.9443    2.0582    3.5739 C.3       1 <0>         0.0000
     14 C14         2.7526    0.8333    4.0188 C.3       1 <0>         0.0000
     15 C15         0.4970   -0.1500    5.7748 C.3       1 <0>         0.0000
     16 C16         1.5039   -1.0561    4.9885 C.3       1 <0>         0.0000
     17 N1          3.5416   -1.5663    6.6065 N.1       1 <0>         0.0000
     18 N2         -0.5895   -1.8677    8.7628 N.2       1 <0>         0.0000
     19 N3         -1.4130   -1.3465    6.7091 N.2       1 <0>         0.0000
     20 N4         -0.1590   -0.8300    6.8704 N.pl3     1 <0>         0.0000
     21 O1          1.9659   -0.3754    3.8382 O.3       1 <0>         0.0000
     22 H1         -1.1981   -5.4757    3.4297 H         1 <0>         0.0000
     23 H2         -1.1380   -3.4552    1.9765 H         1 <0>         0.0000
     24 H3          0.0403   -5.4776    5.5909 H         1 <0>         0.0000
     25 H4          0.1469   -1.4520    2.6860 H         1 <0>         0.0000
     26 H5          1.3180   -3.4876    6.2919 H         1 <0>         0.0000
     27 H6         -2.5500   -2.4691    8.0810 H         1 <0>         0.0000
     28 H7          1.2939   -0.8707    8.4567 H         1 <0>         0.0000
     29 H8          2.9262    0.2406    1.1323 H         1 <0>         0.0000
     30 H9          3.9170    1.6885    1.0016 H         1 <0>         0.0000
     31 H10         2.0131    3.0036    1.5935 H         1 <0>         0.0000
     32 H11         1.0678    1.5230    1.6479 H         1 <0>         0.0000
     33 H12         4.3879   -0.1920    3.0002 H         1 <0>         0.0000
     34 H13         4.6407    1.5363    3.2865 H         1 <0>         0.0000
     35 H14         2.4561    2.9568    3.9382 H         1 <0>         0.0000
     36 H15         0.9310    2.0699    3.9828 H         1 <0>         0.0000
     37 H16         3.1134    0.8942    5.0499 H         1 <0>         0.0000
     38 H17         1.0097    0.7360    6.1557 H         1 <0>         0.0000
     39 H18        -0.2771    0.1555    5.0717 H         1 <0>         0.0000
@<TRIPOS>BOND
     1    1   16 1
     2    1   17 3
     3    2    4 ar
     4    2    3 ar
     5    2   22 1
     6    3    5 ar
     7    3   23 1
     8    4    6 ar
     9    4   24 1
    10    5    9 ar
    11    5   25 1
    12    6    9 ar
    13    6   26 1
    14    7   18 1
    15    7   19 2
    16    7   27 1
    17    8   18 2
    18    8   20 1
    19    8   28 1
    20    9   16 1
    21   10   11 1
    22   10   12 1
    23   10   29 1
    24   10   30 1
    25   11   13 1
    26   11   31 1
    27   11   32 1
    28   12   14 1
    29   12   33 1
    30   12   34 1
    31   13   14 1
    32   13   35 1
    33   13   36 1
    34   14   21 1
    35   14   37 1
    36   15   16 1
    37   15   20 1
    38   15   38 1
    39   15   39 1
    40   16   21 1
    41   19   20 1
