@<TRIPOS>MOLECULE
*****
   29    31     0     0     0
SMALL
NO_CHARGES

@<TRIPOS>ATOM
      1 C1         -1.1019    1.8780   -1.3905 C.ar      1 <0>         0.0000
      2 C2         -0.4744    2.9052   -0.6772 C.ar      1 <0>         0.0000
      3 C3         -0.0790    0.3255    0.1827 C.ar      1 <0>         0.0000
      4 C4          0.5650    1.3379    0.9014 C.ar      1 <0>         0.0000
      5 C5         -0.0312   -1.0783    0.4249 C.2       1 <0>         0.0000
      6 C6         -0.8910    0.5676   -0.9441 C.ar      1 <0>         0.0000
      7 C7          0.3372    2.6229    0.4379 C.ar      1 <0>         0.0000
      8 C8         -0.7944   -1.6814   -0.5515 C.2       1 <0>         0.0000
      9 C9          2.1836   -2.0707    1.0986 C.2       1 <0>         0.0000
     10 C10         1.4358    0.8948    2.0538 C.3       1 <0>         0.0000
     11 C11         0.9481   -0.4564    2.6269 C.3       1 <0>         0.0000
     12 C12         0.7978   -1.5945    1.5623 C.3       1 <0>         0.0000
     13 C13        -1.0588   -3.1258   -0.8256 C.3       1 <0>         0.0000
     14 N1         -1.3185   -0.6830   -1.3779 N.pl3     1 <0>         0.0000
     15 O1          2.6729   -1.8617    0.0160 O.2       1 <0>         0.0000
     16 O2          2.8921   -2.7737    2.0393 O.3       1 <0>         0.0000
     17 F1          0.9241    3.6779    1.0809 F         1 <0>         0.0000
     18 H1         -1.7195    2.1086   -2.2543 H         1 <0>         0.0000
     19 H2         -0.5983    3.9416   -0.9758 H         1 <0>         0.0000
     20 H3          2.4728    0.7977    1.7074 H         1 <0>         0.0000
     21 H4          1.4413    1.6444    2.8504 H         1 <0>         0.0000
     22 H5          1.6278   -0.7700    3.4271 H         1 <0>         0.0000
     23 H6         -0.0368   -0.3115    3.0829 H         1 <0>         0.0000
     24 H7          0.3072   -2.4469    2.0526 H         1 <0>         0.0000
     25 H8         -2.1300   -3.3318   -0.9366 H         1 <0>         0.0000
     26 H9         -0.5550   -3.4570   -1.7417 H         1 <0>         0.0000
     27 H10        -0.6827   -3.7410   -0.0047 H         1 <0>         0.0000
     28 H11        -1.9177   -0.8575   -2.1721 H         1 <0>         0.0000
     29 H12         2.3665   -2.8589    2.8528 H         1 <0>         0.0000
@<TRIPOS>BOND
     1    1    2 ar
     2    1    6 ar
     3    1   18 1
     4    2    7 ar
     5    2   19 1
     6    3    4 ar
     7    3    5 1
     8    3    6 ar
     9    4    7 ar
    10    4   10 1
    11    5    8 2
    12    5   12 1
    13    6   14 1
    14    7   17 1
    15    8   13 1
    16    8   14 1
    17    9   12 1
    18    9   15 2
    19    9   16 1
    20   10   11 1
    21   10   20 1
    22   10   21 1
    23   11   12 1
    24   11   22 1
    25   11   23 1
    26   12   24 1
    27   13   25 1
    28   13   26 1
    29   13   27 1
    30   14   28 1
    31   16   29 1
