@<TRIPOS>MOLECULE
*****
   15    15     0     0     0
SMALL
NO_CHARGES

@<TRIPOS>ATOM
      1 C1          1.2296    0.0111    1.5705 C.ar      1 <0>         0.0000
      2 C2         -0.0049   -0.2807    0.9844 C.ar      1 <0>         0.0000
      3 C3          1.5852   -0.5828    2.7871 C.ar      1 <0>         0.0000
      4 C4         -0.8334   -1.2206    1.6153 C.ar      1 <0>         0.0000
      5 C5          0.6509   -1.4718    3.3256 C.ar      1 <0>         0.0000
      6 C6         -3.2050   -2.6705    2.0800 C.3       1 <0>         0.0000
      7 N1         -0.4926   -1.7928    2.7773 N.ar      1 <0>         0.0000
      8 F1         -3.3872   -2.0114    3.2331 F         1 <0>         0.0000
      9 F2         -2.5882   -3.8299    2.3497 F         1 <0>         0.0000
     10 F3         -4.4224   -2.9584    1.5633 F         1 <0>         0.0000
     11 S1         -2.3574   -1.6767    0.7947 S.3       1 <0>         0.0000
     12 I1          0.8493   -1.9121    5.6050 I         1 <0>         0.0000
     13 H1          1.9028    0.7204    1.0961 H         1 <0>         0.0000
     14 H2         -0.3188    0.2134    0.0695 H         1 <0>         0.0000
     15 H3          2.5318   -0.3791    3.2733 H         1 <0>         0.0000
@<TRIPOS>BOND
     1    1    2 ar
     2    1    3 ar
     3    1   13 1
     4    2    4 ar
     5    2   14 1
     6    3    5 ar
     7    3   15 1
     8    4    7 ar
     9    4   11 1
    10    5    7 ar
    11    5   12 1
    12    6    8 1
    13    6    9 1
    14    6   10 1
    15    6   11 1
