@<TRIPOS>MOLECULE
*****
   67    69     0     0     0
SMALL
NO_CHARGES

@<TRIPOS>ATOM
      1 C1         -2.4924   -0.4600   -0.5787 C.1       1 <0>         0.0000
      2 C2          1.2536   -6.8740   -3.6007 C.ar      1 <0>         0.0000
      3 C3          0.7172   -6.4397   -2.3925 C.ar      1 <0>         0.0000
      4 C4          0.9078   -1.8590   -0.0308 C.ar      1 <0>         0.0000
      5 C5         -1.4071   -1.3954   -0.5209 C.ar      1 <0>         0.0000
      6 C6         -0.6448   -4.8253   -3.6028 C.ar      1 <0>         0.0000
      7 C7         -1.6087   -2.7253   -0.9544 C.ar      1 <0>         0.0000
      8 C8          0.8904   -6.2859   -4.8204 C.ar      1 <0>         0.0000
      9 C9         -0.1566   -0.9548   -0.0425 C.ar      1 <0>         0.0000
     10 C10        -0.2126   -5.4034   -2.3968 C.ar      1 <0>         0.0000
     11 C11        -0.5449   -3.6219   -0.8651 C.ar      1 <0>         0.0000
     12 C12         0.7297   -3.1835   -0.4459 C.ar      1 <0>         0.0000
     13 C13        -0.0682   -5.2656   -4.8121 C.ar      1 <0>         0.0000
     14 C14        -1.6706   -3.7460   -3.5414 C.2       1 <0>         0.0000
     15 C15        -2.9126   -3.1329   -1.6146 C.3       1 <0>         0.0000
     16 C16         0.0335    0.4684    0.4202 C.3       1 <0>         0.0000
     17 C17         6.1311   -5.8413   -1.6459 C.3       1 <0>         0.0000
     18 C18         5.7624   -3.3725   -2.0339 C.3       1 <0>         0.0000
     19 C19         4.9248   -4.6924   -5.8213 C.3       1 <0>         0.0000
     20 C20         2.8034   -3.9775   -6.9954 C.3       1 <0>         0.0000
     21 C21        -1.7008   -5.1310   -6.5238 C.3       1 <0>         0.0000
     22 C22         3.8915   -4.8401   -1.0993 C.3       1 <0>         0.0000
     23 C23         3.0647   -6.3599   -6.1060 C.3       1 <0>         0.0000
     24 C24         3.0801   -3.6762   -0.5486 C.3       1 <0>         0.0000
     25 C25         1.5687   -6.7242   -6.0983 C.3       1 <0>         0.0000
     26 C26         5.4066   -4.5804   -1.1528 C.3       1 <0>         0.0000
     27 C27         3.4023   -4.8732   -5.9005 C.3       1 <0>         0.0000
     28 N1         -3.3660    0.3125   -0.6056 N.1       1 <0>         0.0000
     29 O1         -1.6511   -2.6898   -4.1313 O.2       1 <0>         0.0000
     30 O2         -0.6964   -4.9686   -1.1669 O.3       1 <0>         0.0000
     31 O3         -2.6591   -4.1000   -2.6496 O.3       1 <0>         0.0000
     32 O4          1.4049   -8.1542   -6.1934 O.3       1 <0>         0.0000
     33 O5         -0.4419   -4.6808   -6.0008 O.3       1 <0>         0.0000
     34 O6          1.7108   -4.1154   -0.4857 O.3       1 <0>         0.0000
     35 H1          1.9786   -7.6825   -3.6076 H         1 <0>         0.0000
     36 H2          1.0295   -6.8579   -1.4419 H         1 <0>         0.0000
     37 H3          1.8801   -1.5286    0.3178 H         1 <0>         0.0000
     38 H4         -3.5818   -3.6400   -0.9160 H         1 <0>         0.0000
     39 H5         -3.4212   -2.2561   -2.0217 H         1 <0>         0.0000
     40 H6         -0.1853    1.1761   -0.3861 H         1 <0>         0.0000
     41 H7         -0.6447    0.7079    1.2456 H         1 <0>         0.0000
     42 H8          1.0586    0.6379    0.7572 H         1 <0>         0.0000
     43 H9          5.8238   -6.0906   -2.6687 H         1 <0>         0.0000
     44 H10         5.9081   -6.7053   -1.0102 H         1 <0>         0.0000
     45 H11         7.2168   -5.6973   -1.6506 H         1 <0>         0.0000
     46 H12         5.3635   -3.4994   -3.0469 H         1 <0>         0.0000
     47 H13         6.8485   -3.2582   -2.1164 H         1 <0>         0.0000
     48 H14         5.3661   -2.4339   -1.6328 H         1 <0>         0.0000
     49 H15         5.4038   -4.9819   -6.7649 H         1 <0>         0.0000
     50 H16         5.1877   -3.6472   -5.6250 H         1 <0>         0.0000
     51 H17         5.3625   -5.3048   -5.0246 H         1 <0>         0.0000
     52 H18         3.1541   -4.2920   -7.9870 H         1 <0>         0.0000
     53 H19         1.7110   -4.0010   -6.9932 H         1 <0>         0.0000
     54 H20         3.1109   -2.9358   -6.8517 H         1 <0>         0.0000
     55 H21        -1.8590   -4.5792   -7.4516 H         1 <0>         0.0000
     56 H22        -2.5205   -4.9130   -5.8310 H         1 <0>         0.0000
     57 H23        -1.6686   -6.2085   -6.7264 H         1 <0>         0.0000
     58 H24         3.6922   -5.7196   -0.4759 H         1 <0>         0.0000
     59 H25         3.5190   -5.0758   -2.1036 H         1 <0>         0.0000
     60 H26         3.4920   -6.6892   -7.0658 H         1 <0>         0.0000
     61 H27         3.5543   -6.9556   -5.3255 H         1 <0>         0.0000
     62 H28         3.4223   -3.3902    0.4550 H         1 <0>         0.0000
     63 H29         3.1432   -2.8000   -1.2018 H         1 <0>         0.0000
     64 H30         1.0704   -6.2420   -6.9439 H         1 <0>         0.0000
     65 H31         5.7529   -4.3711   -0.1305 H         1 <0>         0.0000
     66 H32         2.9746   -4.5633   -4.9377 H         1 <0>         0.0000
     67 H33         1.9029   -8.4532   -6.9713 H         1 <0>         0.0000
@<TRIPOS>BOND
     1    1    5 1
     2    1   28 3
     3    2    3 ar
     4    2    8 ar
     5    2   35 1
     6    3   10 ar
     7    3   36 1
     8    4    9 ar
     9    4   12 ar
    10    4   37 1
    11    5    7 ar
    12    5    9 ar
    13    6   10 ar
    14    6   13 ar
    15    6   14 1
    16    7   11 ar
    17    7   15 1
    18    8   13 ar
    19    8   25 1
    20    9   16 1
    21   10   30 1
    22   11   12 ar
    23   11   30 1
    24   12   34 1
    25   13   33 1
    26   14   29 2
    27   14   31 1
    28   15   31 1
    29   15   38 1
    30   15   39 1
    31   16   40 1
    32   16   41 1
    33   16   42 1
    34   17   26 1
    35   17   43 1
    36   17   44 1
    37   17   45 1
    38   18   26 1
    39   18   46 1
    40   18   47 1
    41   18   48 1
    42   19   27 1
    43   19   49 1
    44   19   50 1
    45   19   51 1
    46   20   27 1
    47   20   52 1
    48   20   53 1
    49   20   54 1
    50   21   33 1
    51   21   55 1
    52   21   56 1
    53   21   57 1
    54   22   24 1
    55   22   26 1
    56   22   58 1
    57   22   59 1
    58   23   25 1
    59   23   27 1
    60   23   60 1
    61   23   61 1
    62   24   34 1
    63   24   62 1
    64   24   63 1
    65   25   32 1
    66   25   64 1
    67   26   65 1
    68   27   66 1
    69   32   67 1
