@<TRIPOS>MOLECULE
*****
   35    35     0     0     0
SMALL
NO_CHARGES

@<TRIPOS>ATOM
      1 C1          1.2607   -1.5523   -0.1451 C.ar      1 <0>         0.0000
      2 C2          0.1864   -1.3234    0.7210 C.ar      1 <0>         0.0000
      3 C3          2.7354   -1.7388    1.7522 C.ar      1 <0>         0.0000
      4 C4          2.5463   -1.7483    0.3622 C.ar      1 <0>         0.0000
      5 C5          0.3768   -1.2847    2.1087 C.ar      1 <0>         0.0000
      6 C6          1.6773   -1.5163    2.6325 C.ar      1 <0>         0.0000
      7 C7         -4.2411   -0.1028    3.3313 C.3       1 <0>         0.0000
      8 C8          1.1460   -2.1460    4.9075 C.3       1 <0>         0.0000
      9 C9          3.7168   -2.0212   -0.5591 C.3       1 <0>         0.0000
     10 C10        -2.8022   -0.4331    3.7436 C.3       1 <0>         0.0000
     11 C11         3.9667   -3.5263   -0.6290 C.3       1 <0>         0.0000
     12 C12        -1.9267   -0.7212    2.5343 C.3       1 <0>         0.0000
     13 N1          5.1695   -3.8387   -1.5331 N.4       1 <0>         0.0000
     14 O1          1.9853   -1.4554    3.9588 O.3       1 <0>         0.0000
     15 O2         -0.5982   -1.0084    3.0096 O.3       1 <0>         0.0000
     16 H1          1.0839   -1.5493   -1.2184 H         1 <0>         0.0000
     17 H2         -0.7968   -1.1444    0.3030 H         1 <0>         0.0000
     18 H3          3.7204   -1.8782    2.1928 H         1 <0>         0.0000
     19 H4         -4.2800    0.7833    2.6882 H         1 <0>         0.0000
     20 H5         -4.7037   -0.9338    2.7872 H         1 <0>         0.0000
     21 H6         -4.8573    0.1001    4.2114 H         1 <0>         0.0000
     22 H7          1.7711   -2.2956    5.7892 H         1 <0>         0.0000
     23 H8          0.8320   -3.1173    4.5107 H         1 <0>         0.0000
     24 H9          0.2687   -1.5512    5.1620 H         1 <0>         0.0000
     25 H10         3.5037   -1.6337   -1.5623 H         1 <0>         0.0000
     26 H11         4.6179   -1.5134   -0.1918 H         1 <0>         0.0000
     27 H12        -2.7884   -1.3057    4.4061 H         1 <0>         0.0000
     28 H13        -2.3658    0.4014    4.3029 H         1 <0>         0.0000
     29 H14         3.1170   -4.0635   -1.0536 H         1 <0>         0.0000
     30 H15         4.2045   -3.9487    0.3484 H         1 <0>         0.0000
     31 H16        -2.3077   -1.5840    1.9724 H         1 <0>         0.0000
     32 H17        -1.8909    0.1457    1.8620 H         1 <0>         0.0000
     33 H18         5.3616   -4.8466   -1.5913 H         1 <0>         0.0000
     34 H19         6.0190   -3.3783   -1.1837 H         1 <0>         0.0000
     35 H20         5.0106   -3.4953   -2.4882 H         1 <0>         0.0000
@<TRIPOS>BOND
     1    1    2 ar
     2    1    4 ar
     3    1   16 1
     4    2    5 ar
     5    2   17 1
     6    3    4 ar
     7    3    6 ar
     8    3   18 1
     9    4    9 1
    10    5    6 ar
    11    5   15 1
    12    6   14 1
    13    7   10 1
    14    7   19 1
    15    7   20 1
    16    7   21 1
    17    8   14 1
    18    8   22 1
    19    8   23 1
    20    8   24 1
    21    9   11 1
    22    9   25 1
    23    9   26 1
    24   10   12 1
    25   10   27 1
    26   10   28 1
    27   11   13 1
    28   11   29 1
    29   11   30 1
    30   12   15 1
    31   12   31 1
    32   12   32 1
    33   13   33 1
    34   13   34 1
    35   13   35 1
