@<TRIPOS>MOLECULE
*****
   39    40     0     0     0
SMALL
NO_CHARGES

@<TRIPOS>ATOM
      1 C1          0.0510   -0.7073   -7.3324 C.ar      1 <0>         0.0000
      2 C2          0.1368   -2.0821   -7.0905 C.ar      1 <0>         0.0000
      3 C3          1.2278    0.0528   -7.3903 C.ar      1 <0>         0.0000
      4 C4          1.3874   -2.6801   -6.8955 C.ar      1 <0>         0.0000
      5 C5          2.4749   -0.5473   -7.2033 C.ar      1 <0>         0.0000
      6 C6          2.5694   -1.9259   -6.9435 C.ar      1 <0>         0.0000
      7 C7          5.1163   -2.2975   -7.6493 C.2       1 <0>         0.0000
      8 C8          4.2722   -2.1085   -5.2466 C.2       1 <0>         0.0000
      9 C9         -0.4638   -1.5154   -3.1247 C.3       1 <0>         0.0000
     10 C10        -0.0615   -2.8082   -2.4004 C.3       1 <0>         0.0000
     11 C11         0.5616   -0.4021   -2.8704 C.3       1 <0>         0.0000
     12 C12         1.3561   -3.2505   -2.7907 C.3       1 <0>         0.0000
     13 C13         1.9734   -0.8460   -3.2758 C.3       1 <0>         0.0000
     14 C14         2.3946   -2.1392   -2.5551 C.3       1 <0>         0.0000
     15 C15         3.8067   -2.5969   -2.9392 C.3       1 <0>         0.0000
     16 C16         3.9023   -2.5713   -6.6373 C.3       1 <0>         0.0000
     17 O1          4.9704   -1.3705   -8.4776 O.co2     1 <0>         0.0000
     18 O2          6.0667   -3.0945   -7.4554 O.co2     1 <0>         0.0000
     19 O3          4.7767   -1.0470   -4.9370 O.2       1 <0>         0.0000
     20 O4          3.8518   -3.0281   -4.3117 O.3       1 <0>         0.0000
     21 H1         -0.9186   -0.2336   -7.4741 H         1 <0>         0.0000
     22 H2         -0.7671   -2.6873   -7.0445 H         1 <0>         0.0000
     23 H3          1.1705    1.1225   -7.5835 H         1 <0>         0.0000
     24 H4          1.4491   -3.7470   -6.6889 H         1 <0>         0.0000
     25 H5          3.3920    0.0269   -7.2604 H         1 <0>         0.0000
     26 H6         -1.4649   -1.1963   -2.8052 H         1 <0>         0.0000
     27 H7         -0.5157   -1.7058   -4.2042 H         1 <0>         0.0000
     28 H8         -0.1063   -2.6423   -1.3133 H         1 <0>         0.0000
     29 H9         -0.7783   -3.6089   -2.6247 H         1 <0>         0.0000
     30 H10         0.2847    0.4995   -3.4298 H         1 <0>         0.0000
     31 H11         0.5485   -0.1324   -1.8031 H         1 <0>         0.0000
     32 H12         1.6404   -4.1514   -2.2299 H         1 <0>         0.0000
     33 H13         1.3739   -3.5202   -3.8524 H         1 <0>         0.0000
     34 H14         1.9886   -1.0088   -4.3573 H         1 <0>         0.0000
     35 H15         2.7024   -0.0533   -3.0751 H         1 <0>         0.0000
     36 H16         2.4307   -1.9286   -1.4727 H         1 <0>         0.0000
     37 H17         4.0951   -3.4731   -2.3482 H         1 <0>         0.0000
     38 H18         4.5372   -1.7991   -2.7829 H         1 <0>         0.0000
     39 H19         3.7686   -3.6534   -6.5870 H         1 <0>         0.0000
@<TRIPOS>BOND
     1    1    3 ar
     2    1    2 ar
     3    1   21 1
     4    2    4 ar
     5    2   22 1
     6    3    5 ar
     7    3   23 1
     8    4    6 ar
     9    4   24 1
    10    5    6 ar
    11    5   25 1
    12    6   16 1
    13    7   16 1
    14    7   17 1
    15    7   18 2
    16    8   16 1
    17    8   19 2
    18    8   20 1
    19    9   11 1
    20    9   10 1
    21    9   26 1
    22    9   27 1
    23   10   12 1
    24   10   28 1
    25   10   29 1
    26   11   13 1
    27   11   30 1
    28   11   31 1
    29   12   14 1
    30   12   32 1
    31   12   33 1
    32   13   14 1
    33   13   34 1
    34   13   35 1
    35   14   15 1
    36   14   36 1
    37   15   20 1
    38   15   37 1
    39   15   38 1
    40   16   39 1
