@<TRIPOS>MOLECULE
*****
   15    15     0     0     0
SMALL
NO_CHARGES

@<TRIPOS>ATOM
      1 C1          1.4065    0.0910    1.3546 C.ar      1 <0>         0.0000
      2 C2          0.4308   -0.6397    0.6669 C.ar      1 <0>         0.0000
      3 C3          1.5528   -0.0454    2.7383 C.ar      1 <0>         0.0000
      4 C4         -0.3550   -1.5367    1.4015 C.ar      1 <0>         0.0000
      5 C5          0.6910   -0.9617    3.3492 C.ar      1 <0>         0.0000
      6 C6         -1.6282   -2.3190   -0.9996 C.3       1 <0>         0.0000
      7 N1         -0.2092   -1.6781    2.7301 N.ar      1 <0>         0.0000
      8 F1         -0.4496   -2.6227   -1.5882 F         1 <0>         0.0000
      9 F2         -1.9106   -1.0376   -1.3319 F         1 <0>         0.0000
     10 F3         -2.5783   -3.1053   -1.5374 F         1 <0>         0.0000
     11 S1         -1.6467   -2.6238    0.7957 S.3       1 <0>         0.0000
     12 I1          0.3915   -0.7364    5.6528 I         1 <0>         0.0000
     13 H1          2.0392    0.7872    0.8101 H         1 <0>         0.0000
     14 H2          0.2900   -0.4939   -0.3964 H         1 <0>         0.0000
     15 H3          2.2989    0.5069    3.2971 H         1 <0>         0.0000
@<TRIPOS>BOND
     1    1    2 ar
     2    1    3 ar
     3    1   13 1
     4    2    4 ar
     5    2   14 1
     6    3    5 ar
     7    3   15 1
     8    4    7 ar
     9    4   11 1
    10    5    7 ar
    11    5   12 1
    12    6    8 1
    13    6    9 1
    14    6   10 1
    15    6   11 1
