@<TRIPOS>MOLECULE
*****
   26    26     0     0     0
SMALL
NO_CHARGES

@<TRIPOS>ATOM
      1 C1          0.9633    0.6762    3.2716 C.ar      1 <0>         0.0000
      2 C2          0.5434    1.1590    4.5096 C.ar      1 <0>         0.0000
      3 C3          1.5595    3.2993    4.0098 C.ar      1 <0>         0.0000
      4 C4          1.6844    1.4834    2.3846 C.ar      1 <0>         0.0000
      5 C5          0.8381    2.4785    4.8859 C.ar      1 <0>         0.0000
      6 C6          1.9752    2.7995    2.7740 C.ar      1 <0>         0.0000
      7 C7          2.1361   -0.8568   -1.0718 C.3       1 <0>         0.0000
      8 C8          1.0252    0.9948   -2.4063 C.3       1 <0>         0.0000
      9 C9          1.2461    1.2127    0.0735 C.3       1 <0>         0.0000
     10 C10         1.8942    0.6534   -1.1878 C.3       1 <0>         0.0000
     11 O1          2.1282    0.9725    1.1920 O.3       1 <0>         0.0000
     12 S1          0.2663    3.0324    6.4818 S.3       1 <0>         0.0000
     13 Cl1         2.8895    3.8393    1.6998 Cl        1 <0>         0.0000
     14 H1          0.7491   -0.3467    2.9748 H         1 <0>         0.0000
     15 H2         -0.0080    0.5084    5.1830 H         1 <0>         0.0000
     16 H3          1.8086    4.3226    4.2733 H         1 <0>         0.0000
     17 H4          1.1857   -1.3951   -0.9641 H         1 <0>         0.0000
     18 H5          2.7591   -1.0905   -0.2047 H         1 <0>         0.0000
     19 H6          2.6363   -1.2402   -1.9676 H         1 <0>         0.0000
     20 H7          0.0363    0.5265   -2.3301 H         1 <0>         0.0000
     21 H8          1.4922    0.6309   -3.3272 H         1 <0>         0.0000
     22 H9          0.8791    2.0758   -2.5095 H         1 <0>         0.0000
     23 H10         1.0717    2.2911   -0.0256 H         1 <0>         0.0000
     24 H11         0.2809    0.7221    0.2673 H         1 <0>         0.0000
     25 H12         2.8639    1.1553   -1.2973 H         1 <0>         0.0000
     26 H13         0.7970    4.2701    6.4256 H         1 <0>         0.0000
@<TRIPOS>BOND
     1    1    2 ar
     2    1    4 ar
     3    1   14 1
     4    2    5 ar
     5    2   15 1
     6    3    5 ar
     7    3    6 ar
     8    3   16 1
     9    4    6 ar
    10    4   11 1
    11    5   12 1
    12    6   13 1
    13    7   10 1
    14    7   17 1
    15    7   18 1
    16    7   19 1
    17    8   10 1
    18    8   20 1
    19    8   21 1
    20    8   22 1
    21    9   10 1
    22    9   11 1
    23    9   23 1
    24    9   24 1
    25   10   25 1
    26   12   26 1
