@<TRIPOS>MOLECULE
*****
   26    26     0     0     0
SMALL
NO_CHARGES

@<TRIPOS>ATOM
      1 C1          4.1673    3.2003    1.9976 C.ar      1 <0>         0.0000
      2 C2          4.3900    4.1444    2.9983 C.ar      1 <0>         0.0000
      3 C3          2.7542    3.0349    4.3970 C.ar      1 <0>         0.0000
      4 C4          3.2412    2.1655    2.1697 C.ar      1 <0>         0.0000
      5 C5          3.6806    4.0680    4.2067 C.ar      1 <0>         0.0000
      6 C6          2.5404    2.0987    3.3834 C.ar      1 <0>         0.0000
      7 C7          1.4063   -0.9370    0.1094 C.3       1 <0>         0.0000
      8 C8          0.7825    0.6728   -1.7520 C.3       1 <0>         0.0000
      9 C9          1.9897    1.5145    0.2682 C.3       1 <0>         0.0000
     10 C10         1.8099    0.3234   -0.6662 C.3       1 <0>         0.0000
     11 O1          3.0666    1.2245    1.1873 O.3       1 <0>         0.0000
     12 S1          4.0228    5.3018    5.4482 S.3       1 <0>         0.0000
     13 Cl1         1.3853    0.8077    3.6472 Cl        1 <0>         0.0000
     14 H1          4.7184    3.2451    1.0624 H         1 <0>         0.0000
     15 H2          5.1157    4.9374    2.8392 H         1 <0>         0.0000
     16 H3          2.1980    2.9411    5.3246 H         1 <0>         0.0000
     17 H4          0.4291   -0.8004    0.5884 H         1 <0>         0.0000
     18 H5          2.1337   -1.1674    0.8915 H         1 <0>         0.0000
     19 H6          1.3339   -1.7991   -0.5625 H         1 <0>         0.0000
     20 H7         -0.1981    0.8903   -1.3113 H         1 <0>         0.0000
     21 H8          0.6537   -0.1650   -2.4448 H         1 <0>         0.0000
     22 H9          1.0904    1.5469   -2.3369 H         1 <0>         0.0000
     23 H10         2.2416    2.4231   -0.2960 H         1 <0>         0.0000
     24 H11         1.0674    1.7041    0.8332 H         1 <0>         0.0000
     25 H12         2.7796    0.1423   -1.1478 H         1 <0>         0.0000
     26 H13         3.0985    4.8963    6.3415 H         1 <0>         0.0000
@<TRIPOS>BOND
     1    1    2 ar
     2    1    4 ar
     3    1   14 1
     4    2    5 ar
     5    2   15 1
     6    3    5 ar
     7    3    6 ar
     8    3   16 1
     9    4    6 ar
    10    4   11 1
    11    5   12 1
    12    6   13 1
    13    7   10 1
    14    7   17 1
    15    7   18 1
    16    7   19 1
    17    8   10 1
    18    8   20 1
    19    8   21 1
    20    8   22 1
    21    9   10 1
    22    9   11 1
    23    9   23 1
    24    9   24 1
    25   10   25 1
    26   12   26 1
