@<TRIPOS>MOLECULE
*****
   18    18     0     0     0
SMALL
NO_CHARGES

@<TRIPOS>ATOM
      1 C1          1.0805   -0.4905    1.3809 C.ar      1 <0>         0.0000
      2 C2         -0.0343   -0.3259    2.2043 C.ar      1 <0>         0.0000
      3 C3          2.3950   -1.1991    3.2897 C.ar      1 <0>         0.0000
      4 C4          1.2765   -1.0310    4.0983 C.ar      1 <0>         0.0000
      5 C5          2.3025   -0.9151    1.9211 C.ar      1 <0>         0.0000
      6 C6          0.0570   -0.5924    3.5731 C.ar      1 <0>         0.0000
      7 C7          4.5654    0.4686    0.8805 C.2       1 <0>         0.0000
      8 C8          3.9739    1.5862    1.7107 C.3       1 <0>         0.0000
      9 O1          5.5732    0.5727    0.2173 O.2       1 <0>         0.0000
     10 F1          1.3765   -1.2990    5.4149 F         1 <0>         0.0000
     11 S1          3.7267   -1.1518    0.8621 S.3       1 <0>         0.0000
     12 Cl1        -1.3218   -0.3931    4.6162 Cl        1 <0>         0.0000
     13 H1          1.0020   -0.2872    0.3176 H         1 <0>         0.0000
     14 H2         -0.9813    0.0062    1.7906 H         1 <0>         0.0000
     15 H3          3.3223   -1.5454    3.7351 H         1 <0>         0.0000
     16 H4          2.9563    1.8157    1.3831 H         1 <0>         0.0000
     17 H5          4.6086    2.4666    1.5986 H         1 <0>         0.0000
     18 H6          3.9181    1.2983    2.7640 H         1 <0>         0.0000
@<TRIPOS>BOND
     1    1    2 ar
     2    1    5 ar
     3    1   13 1
     4    2    6 ar
     5    2   14 1
     6    3    4 ar
     7    3    5 ar
     8    3   15 1
     9    4    6 ar
    10    4   10 1
    11    5   11 1
    12    6   12 1
    13    7    8 1
    14    7    9 2
    15    7   11 1
    16    8   16 1
    17    8   17 1
    18    8   18 1
