@<TRIPOS>MOLECULE
*****
   20    21     0     0     0
SMALL
NO_CHARGES

@<TRIPOS>ATOM
      1 C1          1.4528   -1.4557   -0.0497 C.ar      1 <0>         0.0000
      2 C2          0.5666   -0.6457    0.6604 C.ar      1 <0>         0.0000
      3 C3          4.7726   -2.7420   -3.6510 C.2       1 <0>         0.0000
      4 C4          4.5169   -1.3906   -3.7171 C.2       1 <0>         0.0000
      5 C5          2.6645   -1.8847    0.5137 C.ar      1 <0>         0.0000
      6 C6          0.9079   -0.2437    1.9470 C.ar      1 <0>         0.0000
      7 C7          2.9728   -1.4733    1.8158 C.ar      1 <0>         0.0000
      8 C8          2.1093   -0.6464    2.5320 C.ar      1 <0>         0.0000
      9 C9          3.9413   -2.4914   -1.6191 C.2       1 <0>         0.0000
     10 C10         3.5725   -2.8387   -0.2127 C.2       1 <0>         0.0000
     11 N1          4.4527   -3.3471   -2.4692 N.2       1 <0>         0.0000
     12 O1          3.9975   -3.8485    0.3203 O.2       1 <0>         0.0000
     13 F1          0.0841    0.5477    2.6555 F         1 <0>         0.0000
     14 F2          4.1252   -1.8288    2.3979 F         1 <0>         0.0000
     15 F3          2.4318   -0.2396    3.7676 F         1 <0>         0.0000
     16 S1          3.8295   -0.8443   -2.2375 S.3       1 <0>         0.0000
     17 H1          1.1867   -1.7834   -1.0492 H         1 <0>         0.0000
     18 H2         -0.3787   -0.3230    0.2367 H         1 <0>         0.0000
     19 H3          5.1997   -3.3311   -4.4556 H         1 <0>         0.0000
     20 H4          4.6991   -0.7126   -4.5411 H         1 <0>         0.0000
@<TRIPOS>BOND
     1    1    2 ar
     2    1    5 ar
     3    1   17 1
     4    2    6 ar
     5    2   18 1
     6    3    4 2
     7    3   11 1
     8    3   19 1
     9    4   16 1
    10    4   20 1
    11    5    7 ar
    12    5   10 1
    13    6    8 ar
    14    6   13 1
    15    7    8 ar
    16    7   14 1
    17    8   15 1
    18    9   10 1
    19    9   11 2
    20    9   16 1
    21   10   12 2
