@<TRIPOS>MOLECULE
*****
   66    70     0     0     0
SMALL
NO_CHARGES

@<TRIPOS>ATOM
      1 C1          6.7884   -3.2202    1.2315 C.ar      1 <0>         0.0000
      2 C2          7.0691   -2.0275    3.3096 C.ar      1 <0>         0.0000
      3 C3          3.9737   -2.0934    1.2569 C.ar      1 <0>         0.0000
      4 C4          0.0885   -1.9507    4.6558 C.ar      1 <0>         0.0000
      5 C5          7.9552   -3.9427    1.4843 C.ar      1 <0>         0.0000
      6 C6          8.2356   -2.7417    3.5670 C.ar      1 <0>         0.0000
      7 C7          2.7884   -1.3962    1.0051 C.ar      1 <0>         0.0000
      8 C8          0.1571   -1.5507    3.3256 C.ar      1 <0>         0.0000
      9 C9          4.9937   -0.1219    2.2172 C.ar      1 <0>         0.0000
     10 C10        -0.5462    0.6735    4.0088 C.ar      1 <0>         0.0000
     11 C11         6.3219   -2.2521    2.1370 C.ar      1 <0>         0.0000
     12 C12         5.0836   -1.4851    1.8696 C.ar      1 <0>         0.0000
     13 C13        -0.2786   -1.0601    5.6789 C.ar      1 <0>         0.0000
     14 C14         3.8209    0.5801    1.9822 C.ar      1 <0>         0.0000
     15 C15        -0.5945    0.2719    5.3509 C.ar      1 <0>         0.0000
     16 C16         8.6820   -3.7041    2.6527 C.ar      1 <0>         0.0000
     17 C17         2.7170   -0.0596    1.4008 C.ar      1 <0>         0.0000
     18 C18        -0.1647   -0.2251    3.0147 C.ar      1 <0>         0.0000
     19 C19        -0.1465    3.5434    7.3647 C.2       1 <0>         0.0000
     20 C20        -0.3795   -1.5727    7.1020 C.3       1 <0>         0.0000
     21 C21        -0.3947   -0.4567    8.1498 C.3       1 <0>         0.0000
     22 C22        -1.3705    0.6486    7.7361 C.3       1 <0>         0.0000
     23 C23         1.9870    2.0854    2.0379 C.3       1 <0>         0.0000
     24 C24        -0.9546    1.3059    6.4094 C.3       1 <0>         0.0000
     25 C25         3.5326    2.0625    2.1571 C.3       1 <0>         0.0000
     26 C26         3.9940    2.6265    3.5067 C.3       1 <0>         0.0000
     27 C27         4.1710    2.8503    0.9939 C.3       1 <0>         0.0000
     28 C28         0.2249    2.2832    6.5917 C.3       1 <0>         0.0000
     29 C29         9.9441   -4.4624    2.9566 C.3       1 <0>         0.0000
     30 N1          1.6475    0.8684    1.2496 N.pl3     1 <0>         0.0000
     31 O1         -1.2729    3.8856    7.6346 O.2       1 <0>         0.0000
     32 O2         -0.1128   -0.7719    0.4256 O.2       1 <0>         0.0000
     33 O3         -0.7603    1.5879    1.1845 O.2       1 <0>         0.0000
     34 O4          0.9108    4.3288    7.7322 O.3       1 <0>         0.0000
     35 F1         10.2564   -5.3615    1.9940 F         1 <0>         0.0000
     36 F2         11.0143   -3.6323    3.0885 F         1 <0>         0.0000
     37 F3          9.8511   -5.1489    4.1281 F         1 <0>         0.0000
     38 S1          0.0213    0.3625    1.3360 S.o2      1 <0>         0.0000
     39 H1          6.2492   -3.3923    0.3047 H         1 <0>         0.0000
     40 H2          6.7161   -1.3053    4.0400 H         1 <0>         0.0000
     41 H3          4.0234   -3.1452    0.9895 H         1 <0>         0.0000
     42 H4          0.3223   -2.9817    4.9123 H         1 <0>         0.0000
     43 H5          8.3036   -4.6805    0.7691 H         1 <0>         0.0000
     44 H6          8.7934   -2.5608    4.4815 H         1 <0>         0.0000
     45 H7          1.9506   -1.8783    0.5156 H         1 <0>         0.0000
     46 H8          0.4329   -2.2478    2.5430 H         1 <0>         0.0000
     47 H9          5.8563    0.3858    2.6413 H         1 <0>         0.0000
     48 H10        -0.8322    1.6842    3.7291 H         1 <0>         0.0000
     49 H11        -1.3088   -2.1527    7.1855 H         1 <0>         0.0000
     50 H12         0.4356   -2.2786    7.2961 H         1 <0>         0.0000
     51 H13        -0.6778   -0.8675    9.1243 H         1 <0>         0.0000
     52 H14         0.6163   -0.0476    8.2702 H         1 <0>         0.0000
     53 H15        -2.3696    0.2134    7.6121 H         1 <0>         0.0000
     54 H16        -1.4597    1.4125    8.5125 H         1 <0>         0.0000
     55 H17         1.5393    2.0204    3.0379 H         1 <0>         0.0000
     56 H18         1.6009    2.9713    1.5341 H         1 <0>         0.0000
     57 H19        -1.7968    1.9002    6.0416 H         1 <0>         0.0000
     58 H20         3.6700    3.6672    3.6228 H         1 <0>         0.0000
     59 H21         5.0859    2.6125    3.5844 H         1 <0>         0.0000
     60 H22         3.5870    2.0393    4.3367 H         1 <0>         0.0000
     61 H23         3.9307    3.9166    1.0729 H         1 <0>         0.0000
     62 H24         3.8045    2.4848    0.0300 H         1 <0>         0.0000
     63 H25         5.2601    2.7417    1.0058 H         1 <0>         0.0000
     64 H26         1.0685    1.7817    7.0817 H         1 <0>         0.0000
     65 H27         0.5972    2.6077    5.6117 H         1 <0>         0.0000
     66 H28         1.7448    3.9178    7.4474 H         1 <0>         0.0000
@<TRIPOS>BOND
     1    1    5 ar
     2    1   11 ar
     3    1   39 1
     4    2    6 ar
     5    2   11 ar
     6    2   40 1
     7    3    7 ar
     8    3   12 ar
     9    3   41 1
    10    4    8 ar
    11    4   13 ar
    12    4   42 1
    13    5   16 ar
    14    5   43 1
    15    6   16 ar
    16    6   44 1
    17    7   17 ar
    18    7   45 1
    19    8   18 ar
    20    8   46 1
    21    9   12 ar
    22    9   14 ar
    23    9   47 1
    24   10   15 ar
    25   10   18 ar
    26   10   48 1
    27   11   12 1
    28   13   15 ar
    29   13   20 1
    30   14   17 ar
    31   14   25 1
    32   15   24 1
    33   16   29 1
    34   17   30 1
    35   18   38 1
    36   19   28 1
    37   19   31 2
    38   19   34 1
    39   20   21 1
    40   20   49 1
    41   20   50 1
    42   21   22 1
    43   21   51 1
    44   21   52 1
    45   22   24 1
    46   22   53 1
    47   22   54 1
    48   23   25 1
    49   23   30 1
    50   23   55 1
    51   23   56 1
    52   24   28 1
    53   24   57 1
    54   25   26 1
    55   25   27 1
    56   26   58 1
    57   26   59 1
    58   26   60 1
    59   27   61 1
    60   27   62 1
    61   27   63 1
    62   28   64 1
    63   28   65 1
    64   29   35 1
    65   29   36 1
    66   29   37 1
    67   30   38 1
    68   32   38 2
    69   33   38 2
    70   34   66 1
