@<TRIPOS>MOLECULE
*****
   15    15     0     0     0
SMALL
NO_CHARGES

@<TRIPOS>ATOM
      1 C1          1.4078    0.1197    1.3158 C.ar      1 <0>         0.0000
      2 C2          0.0599   -0.0295    0.9697 C.ar      1 <0>         0.0000
      3 C3          1.9801   -0.6832    2.3070 C.ar      1 <0>         0.0000
      4 C4         -0.6975   -0.9716    1.6769 C.ar      1 <0>         0.0000
      5 C5          1.1151   -1.5954    2.9196 C.ar      1 <0>         0.0000
      6 C6         -2.9769   -0.1821    0.2007 C.3       1 <0>         0.0000
      7 N1         -0.1528   -1.7376    2.6377 N.ar      1 <0>         0.0000
      8 F1         -2.8236    1.1137    0.5543 F         1 <0>         0.0000
      9 F2         -4.2873   -0.4061   -0.0064 F         1 <0>         0.0000
     10 F3         -2.3352   -0.3421   -0.9802 F         1 <0>         0.0000
     11 S1         -2.4385   -1.3570    1.4838 S.3       1 <0>         0.0000
     12 I1          2.1084   -3.3894    4.0317 I         1 <0>         0.0000
     13 H1          2.0191    0.8504    0.7924 H         1 <0>         0.0000
     14 H2         -0.3651    0.5612    0.1684 H         1 <0>         0.0000
     15 H3          3.0203   -0.5901    2.5959 H         1 <0>         0.0000
@<TRIPOS>BOND
     1    1    2 ar
     2    1    3 ar
     3    1   13 1
     4    2    4 ar
     5    2   14 1
     6    3    5 ar
     7    3   15 1
     8    4    7 ar
     9    4   11 1
    10    5    7 ar
    11    5   12 1
    12    6    8 1
    13    6    9 1
    14    6   10 1
    15    6   11 1
