@<TRIPOS>MOLECULE
*****
   36    38     0     0     0
SMALL
NO_CHARGES

@<TRIPOS>ATOM
      1 C1         -1.0349   -3.3487   -0.5709 C.ar      1 <0>         0.0000
      2 C2         -1.0971   -4.1098   -1.7387 C.ar      1 <0>         0.0000
      3 C3          0.7385   -2.8108   -2.6543 C.ar      1 <0>         0.0000
      4 C4         -1.0487   -0.4037    5.0273 C.2       1 <0>         0.0000
      5 C5          0.5839   -1.3482    4.0945 C.2       1 <0>         0.0000
      6 C6         -0.1044   -2.3124   -0.3902 C.ar      1 <0>         0.0000
      7 C7         -0.2042   -3.8257   -2.7647 C.ar      1 <0>         0.0000
      8 C8          0.7540   -2.0848   -1.4705 C.ar      1 <0>         0.0000
      9 C9         -0.0025    1.0852    0.1021 C.3       1 <0>         0.0000
     10 C10        -0.4726    1.0768    1.5323 C.3       1 <0>         0.0000
     11 C11        -0.7837   -0.1040    0.6397 C.3       1 <0>         0.0000
     12 C12        -3.5263    0.2229    1.4134 C.3       1 <0>         0.0000
     13 C13        -0.6728   -2.2224    2.0663 C.3       1 <0>         0.0000
     14 C14        -0.0513   -1.4490    0.8806 C.3       1 <0>         0.0000
     15 N1          0.2896   -0.6341    5.1739 N.2       1 <0>         0.0000
     16 N2         -1.5898   -0.9296    3.9347 N.2       1 <0>         0.0000
     17 N3         -0.5232   -1.5373    3.3378 N.pl3     1 <0>         0.0000
     18 O1          1.3038   -1.2388    1.2970 O.3       1 <0>         0.0000
     19 F1         -0.2477   -4.5505   -3.9063 F         1 <0>         0.0000
     20 F2          1.6920   -1.0878   -1.3929 F         1 <0>         0.0000
     21 S1         -2.4788   -0.2984    0.0054 S.3       1 <0>         0.0000
     22 H1         -1.7526   -3.5664    0.2095 H         1 <0>         0.0000
     23 H2         -1.8276   -4.9029   -1.8588 H         1 <0>         0.0000
     24 H3          1.4346   -2.5872   -3.4552 H         1 <0>         0.0000
     25 H4         -1.6398    0.1553    5.7413 H         1 <0>         0.0000
     26 H5          1.5557   -1.7268    3.8126 H         1 <0>         0.0000
     27 H6         -0.5231    1.7128   -0.6124 H         1 <0>         0.0000
     28 H7          1.0614    0.9824   -0.0816 H         1 <0>         0.0000
     29 H8          0.2761    0.9178    2.3006 H         1 <0>         0.0000
     30 H9         -1.2909    1.7250    1.8234 H         1 <0>         0.0000
     31 H10        -4.5382   -0.1105    1.1667 H         1 <0>         0.0000
     32 H11        -3.5350    1.3103    1.5210 H         1 <0>         0.0000
     33 H12        -3.2006   -0.2415    2.3447 H         1 <0>         0.0000
     34 H13        -1.7415   -2.3609    1.9199 H         1 <0>         0.0000
     35 H14        -0.1882   -3.1994    2.1348 H         1 <0>         0.0000
     36 H15         1.8186   -0.9166    0.5411 H         1 <0>         0.0000
@<TRIPOS>BOND
     1    1    2 ar
     2    1    6 ar
     3    1   22 1
     4    2    7 ar
     5    2   23 1
     6    3    7 ar
     7    3    8 ar
     8    3   24 1
     9    4   15 1
    10    4   16 2
    11    4   25 1
    12    5   15 2
    13    5   17 1
    14    5   26 1
    15    6    8 ar
    16    6   14 1
    17    7   19 1
    18    8   20 1
    19    9   10 1
    20    9   11 1
    21    9   27 1
    22    9   28 1
    23   10   11 1
    24   10   29 1
    25   10   30 1
    26   11   14 1
    27   11   21 1
    28   12   21 1
    29   12   31 1
    30   12   32 1
    31   12   33 1
    32   13   14 1
    33   13   17 1
    34   13   34 1
    35   13   35 1
    36   14   18 1
    37   16   17 1
    38   18   36 1
