@<TRIPOS>MOLECULE
*****
   20    21     0     0     0
SMALL
NO_CHARGES

@<TRIPOS>ATOM
      1 C1         -1.1618    1.4902    1.7082 C.ar      1 <0>         0.0000
      2 C2         -1.4689    2.3801    2.7400 C.ar      1 <0>         0.0000
      3 C3          0.6693    2.3284    3.5375 C.ar      1 <0>         0.0000
      4 C4          0.1372    0.9805    1.5771 C.ar      1 <0>         0.0000
      5 C5          1.0563    1.4301    2.5396 C.ar      1 <0>         0.0000
      6 C6         -0.5317   -0.5195   -0.4672 C.3       1 <0>         0.0000
      7 C7         -0.6692   -1.7626    0.4435 C.3       1 <0>         0.0000
      8 C8          0.5556   -0.0240    0.5227 C.3       1 <0>         0.0000
      9 N1         -0.5768    2.8022    3.6453 N.ar      1 <0>         0.0000
     10 N2          0.6537   -1.4289    1.0415 N.3       1 <0>         0.0000
     11 Cl1         2.7210    0.8673    2.5276 Cl        1 <0>         0.0000
     12 H1         -1.9407    1.2046    1.0098 H         1 <0>         0.0000
     13 H2         -2.4791    2.7732    2.8405 H         1 <0>         0.0000
     14 H3          1.3971    2.6712    4.2703 H         1 <0>         0.0000
     15 H4         -0.0920   -0.7635   -1.4360 H         1 <0>         0.0000
     16 H5         -1.4153    0.0987   -0.6276 H         1 <0>         0.0000
     17 H6         -1.5146   -1.6804    1.1406 H         1 <0>         0.0000
     18 H7         -0.7006   -2.7418   -0.0443 H         1 <0>         0.0000
     19 H8          1.4901    0.3127    0.0637 H         1 <0>         0.0000
     20 H9          0.7058   -1.5021    2.0562 H         1 <0>         0.0000
@<TRIPOS>BOND
     1    1    2 ar
     2    1    4 ar
     3    1   12 1
     4    2    9 ar
     5    2   13 1
     6    3    5 ar
     7    3    9 ar
     8    3   14 1
     9    4    5 ar
    10    4    8 1
    11    5   11 1
    12    6    7 1
    13    6    8 1
    14    6   15 1
    15    6   16 1
    16    7   10 1
    17    7   17 1
    18    7   18 1
    19    8   10 1
    20    8   19 1
    21   10   20 1
