@<TRIPOS>MOLECULE
*****
   18    18     0     0     0
SMALL
NO_CHARGES

@<TRIPOS>ATOM
      1 C1          1.7319   -0.4814   -0.0426 C.ar      1 <0>         0.0000
      2 C2          0.6993   -0.1274    0.8271 C.ar      1 <0>         0.0000
      3 C3          2.8038   -1.7395    1.7300 C.ar      1 <0>         0.0000
      4 C4          1.7686   -1.3800    2.5855 C.ar      1 <0>         0.0000
      5 C5          2.7812   -1.2985    0.4005 C.ar      1 <0>         0.0000
      6 C6          0.7088   -0.5784    2.1498 C.ar      1 <0>         0.0000
      7 C7          3.5754   -3.2977   -1.4677 C.2       1 <0>         0.0000
      8 C8          2.2417   -3.8820   -1.0579 C.3       1 <0>         0.0000
      9 O1          4.3212   -3.8033   -2.2767 O.2       1 <0>         0.0000
     10 F1          1.7939   -1.8152    3.8603 F         1 <0>         0.0000
     11 S1          4.1200   -1.7312   -0.7069 S.3       1 <0>         0.0000
     12 Cl1        -0.5698   -0.1485    3.2495 Cl        1 <0>         0.0000
     13 H1          1.7217   -0.1242   -1.0676 H         1 <0>         0.0000
     14 H2         -0.1170    0.5021    0.4872 H         1 <0>         0.0000
     15 H3          3.6111   -2.3591    2.1078 H         1 <0>         0.0000
     16 H4          2.2263   -4.0953    0.0144 H         1 <0>         0.0000
     17 H5          2.0856   -4.8030   -1.6218 H         1 <0>         0.0000
     18 H6          1.4302   -3.1778   -1.2601 H         1 <0>         0.0000
@<TRIPOS>BOND
     1    1    2 ar
     2    1    5 ar
     3    1   13 1
     4    2    6 ar
     5    2   14 1
     6    3    4 ar
     7    3    5 ar
     8    3   15 1
     9    4    6 ar
    10    4   10 1
    11    5   11 1
    12    6   12 1
    13    7    8 1
    14    7    9 2
    15    7   11 1
    16    8   16 1
    17    8   17 1
    18    8   18 1
