@<TRIPOS>MOLECULE
*****
   37    39     0     0     0
SMALL
NO_CHARGES

@<TRIPOS>ATOM
      1 C1         -2.3249   -1.1773   -0.8753 C.1       1 <0>         0.0000
      2 C2         -2.0486    4.9235   -0.1290 C.ar      1 <0>         0.0000
      3 C3         -0.8127    5.5741   -0.2168 C.ar      1 <0>         0.0000
      4 C4         -2.0812    3.5489    0.0848 C.ar      1 <0>         0.0000
      5 C5          0.3712    4.8449   -0.0808 C.ar      1 <0>         0.0000
      6 C6         -1.3157   -1.6568    0.0076 C.2       1 <0>         0.0000
      7 C7         -0.9004    2.7878    0.2297 C.ar      1 <0>         0.0000
      8 C8         -1.1570   -3.0569    0.3095 C.2       1 <0>         0.0000
      9 C9          0.3445    3.4661    0.1469 C.ar      1 <0>         0.0000
     10 C10        -0.0948   -3.2957    1.1422 C.2       1 <0>         0.0000
     11 C11        -0.3646   -0.8446    0.6297 C.2       1 <0>         0.0000
     12 C12        -1.0735    1.3485    0.3942 C.2       1 <0>         0.0000
     13 C13        -2.0291   -4.1631   -0.2287 C.3       1 <0>         0.0000
     14 C14         0.3155   -4.6490    1.6543 C.3       1 <0>         0.0000
     15 C15        -1.8290   -5.4628    0.5671 C.3       1 <0>         0.0000
     16 C16        -0.3402   -5.7525    0.8046 C.3       1 <0>         0.0000
     17 C17         2.0006    2.5120    1.5463 C.3       1 <0>         0.0000
     18 N1         -3.1686   -0.8171   -1.5982 N.1       1 <0>         0.0000
     19 N2         -0.1134    0.5042    0.5809 N.2       1 <0>         0.0000
     20 O1          1.5470    2.8123    0.2188 O.3       1 <0>         0.0000
     21 S1          0.7459   -1.8252    1.5590 S.3       1 <0>         0.0000
     22 H1         -2.9742    5.4813   -0.2380 H         1 <0>         0.0000
     23 H2         -0.7692    6.6456   -0.3939 H         1 <0>         0.0000
     24 H3         -3.0382    3.0341    0.1289 H         1 <0>         0.0000
     25 H4          1.3405    5.3293   -0.1570 H         1 <0>         0.0000
     26 H5         -2.1167    1.0160    0.3549 H         1 <0>         0.0000
     27 H6         -3.0805   -3.8562   -0.2060 H         1 <0>         0.0000
     28 H7         -1.7859   -4.3286   -1.2868 H         1 <0>         0.0000
     29 H8          1.4061   -4.7549    1.6378 H         1 <0>         0.0000
     30 H9          0.0088   -4.7558    2.7038 H         1 <0>         0.0000
     31 H10        -2.3376   -5.3773    1.5359 H         1 <0>         0.0000
     32 H11        -2.2982   -6.2965    0.0342 H         1 <0>         0.0000
     33 H12         0.1750   -5.8176   -0.1618 H         1 <0>         0.0000
     34 H13        -0.2126   -6.7196    1.3023 H         1 <0>         0.0000
     35 H14         2.9389    1.9673    1.4289 H         1 <0>         0.0000
     36 H15         1.2823    1.8816    2.0770 H         1 <0>         0.0000
     37 H16         2.1773    3.4400    2.1053 H         1 <0>         0.0000
@<TRIPOS>BOND
     1    1    6 1
     2    1   18 3
     3    2    3 ar
     4    2    4 ar
     5    2   22 1
     6    3    5 ar
     7    3   23 1
     8    4    7 ar
     9    4   24 1
    10    5    9 ar
    11    5   25 1
    12    6    8 1
    13    6   11 2
    14    7    9 ar
    15    7   12 1
    16    8   10 2
    17    8   13 1
    18    9   20 1
    19   10   14 1
    20   10   21 1
    21   11   19 1
    22   11   21 1
    23   12   19 2
    24   12   26 1
    25   13   15 1
    26   13   27 1
    27   13   28 1
    28   14   16 1
    29   14   29 1
    30   14   30 1
    31   15   16 1
    32   15   31 1
    33   15   32 1
    34   16   33 1
    35   16   34 1
    36   17   20 1
    37   17   35 1
    38   17   36 1
    39   17   37 1
