@<TRIPOS>MOLECULE
*****
   20    20     0     0     0
SMALL
NO_CHARGES

@<TRIPOS>ATOM
      1 C1         -1.8716   -0.8116   -2.3324 C.1       1 <0>         0.0000
      2 C2          1.8626   -1.0416   -0.1159 C.ar      1 <0>         0.0000
      3 C3          1.7453   -1.3001    2.6699 C.ar      1 <0>         0.0000
      4 C4          0.7540   -0.5419    0.5727 C.ar      1 <0>         0.0000
      5 C5          2.8972   -1.6509    0.5850 C.ar      1 <0>         0.0000
      6 C6          0.7232   -0.6765    1.9673 C.ar      1 <0>         0.0000
      7 C7          2.8508   -1.7932    1.9734 C.ar      1 <0>         0.0000
      8 C8         -2.3485    0.0046   -1.2077 C.3       1 <0>         0.0000
      9 C9         -1.5819   -0.2922    0.0819 C.3       1 <0>         0.0000
     10 N1         -1.4856   -1.4736   -3.2066 N.1       1 <0>         0.0000
     11 O1         -0.2182    0.1003   -0.1446 O.3       1 <0>         0.0000
     12 F1          3.9551   -2.1209   -0.1040 F         1 <0>         0.0000
     13 F2         -0.3342   -0.1745    2.6575 F         1 <0>         0.0000
     14 Br1         4.2769   -2.6426    2.9030 Br        1 <0>         0.0000
     15 H1          1.9074   -0.9570   -1.1968 H         1 <0>         0.0000
     16 H2          1.6790   -1.3810    3.7494 H         1 <0>         0.0000
     17 H3         -2.2375    1.0620   -1.4664 H         1 <0>         0.0000
     18 H4         -3.4146   -0.1912   -1.0522 H         1 <0>         0.0000
     19 H5         -1.6318   -1.3579    0.3266 H         1 <0>         0.0000
     20 H6         -2.0104    0.2838    0.9067 H         1 <0>         0.0000
@<TRIPOS>BOND
     1    1    8 1
     2    1   10 3
     3    2    4 ar
     4    2    5 ar
     5    2   15 1
     6    3    6 ar
     7    3    7 ar
     8    3   16 1
     9    4    6 ar
    10    4   11 1
    11    5    7 ar
    12    5   12 1
    13    6   13 1
    14    7   14 1
    15    8    9 1
    16    8   17 1
    17    8   18 1
    18    9   11 1
    19    9   19 1
    20    9   20 1
