@<TRIPOS>MOLECULE
*****
   24    24     0     0     0
SMALL
NO_CHARGES

@<TRIPOS>ATOM
      1 C1          0.4637    1.5893   -0.3863 C.2       1 <0>         0.0000
      2 C2          0.7891    0.3084   -0.0482 C.2       1 <0>         0.0000
      3 C3          1.4924    2.5501   -0.7256 C.2       1 <0>         0.0000
      4 C4         -1.6215    0.1223   -0.1907 C.3       1 <0>         0.0000
      5 C5         -0.3645   -0.5675    0.3735 C.3       1 <0>         0.0000
      6 C6         -1.3598   -2.9215    0.4501 C.3       1 <0>         0.0000
      7 C7          2.0299    4.7718   -1.3182 C.3       1 <0>         0.0000
      8 C8         -0.2212   -2.0331   -0.0621 C.3       1 <0>         0.0000
      9 O1          2.6997    2.2625   -0.7660 O.2       1 <0>         0.0000
     10 O2          2.0263   -0.2007   -0.0116 O.3       1 <0>         0.0000
     11 O3          1.0298    3.7861   -0.9863 O.3       1 <0>         0.0000
     12 S1         -1.2859    1.9388   -0.2723 S.3       1 <0>         0.0000
     13 H1         -1.8227   -0.2362   -1.2057 H         1 <0>         0.0000
     14 H2         -2.5058   -0.0420    0.4260 H         1 <0>         0.0000
     15 H3         -0.3962   -0.5294    1.4743 H         1 <0>         0.0000
     16 H4         -1.4217   -2.8917    1.5442 H         1 <0>         0.0000
     17 H5         -1.2035   -3.9634    0.1536 H         1 <0>         0.0000
     18 H6         -2.3313   -2.6084    0.0528 H         1 <0>         0.0000
     19 H7          1.4773    5.6946   -1.4914 H         1 <0>         0.0000
     20 H8          2.5744    4.4728   -2.2166 H         1 <0>         0.0000
     21 H9          2.7341    4.8920   -0.4918 H         1 <0>         0.0000
     22 H10        -0.1763   -2.0748   -1.1575 H         1 <0>         0.0000
     23 H11         0.7393   -2.4105    0.3021 H         1 <0>         0.0000
     24 H12         2.6380    0.5377   -0.2745 H         1 <0>         0.0000
@<TRIPOS>BOND
     1    1    2 2
     2    1    3 1
     3    1   12 1
     4    2    5 1
     5    2   10 1
     6    3    9 2
     7    3   11 1
     8    4    5 1
     9    4   12 1
    10    4   13 1
    11    4   14 1
    12    5    8 1
    13    5   15 1
    14    6    8 1
    15    6   16 1
    16    6   17 1
    17    6   18 1
    18    7   11 1
    19    7   19 1
    20    7   20 1
    21    7   21 1
    22    8   22 1
    23    8   23 1
    24   10   24 1
