@<TRIPOS>MOLECULE
*****
   27    27     0     0     0
SMALL
NO_CHARGES

@<TRIPOS>ATOM
      1 C1          1.8660   -1.6643   -0.0505 C.ar      1 <0>         0.0000
      2 C2          0.7868   -1.0125    0.5432 C.ar      1 <0>         0.0000
      3 C3          2.8752   -1.9294    2.1315 C.ar      1 <0>         0.0000
      4 C4          2.9304   -2.1239    0.7414 C.ar      1 <0>         0.0000
      5 C5          1.8041   -1.2820    2.7498 C.ar      1 <0>         0.0000
      6 C6          0.7585   -0.8110    1.9274 C.ar      1 <0>         0.0000
      7 C7          4.1164   -2.8293    0.1648 C.2       1 <0>         0.0000
      8 C8          1.7550   -1.1210    4.2508 C.3       1 <0>         0.0000
      9 C9          4.1651   -3.0663   -1.3357 C.3       1 <0>         0.0000
     10 C10        -0.1405    2.1126    1.6467 C.3       1 <0>         0.0000
     11 C11        -0.1811    1.1826    2.8536 C.3       1 <0>         0.0000
     12 O1          5.0349   -3.2117    0.8833 O.2       1 <0>         0.0000
     13 O2         -0.3495   -0.2024    2.4809 O.3       1 <0>         0.0000
     14 H1          1.8703   -1.8092   -1.1262 H         1 <0>         0.0000
     15 H2         -0.0501   -0.6543   -0.0489 H         1 <0>         0.0000
     16 H3          3.6973   -2.3141    2.7288 H         1 <0>         0.0000
     17 H4          2.1937   -0.1677    4.5690 H         1 <0>         0.0000
     18 H5          0.7246   -1.1473    4.6142 H         1 <0>         0.0000
     19 H6          2.3200   -1.9180    4.7412 H         1 <0>         0.0000
     20 H7          4.1262   -2.1186   -1.8836 H         1 <0>         0.0000
     21 H8          3.3123   -3.6700   -1.6643 H         1 <0>         0.0000
     22 H9          5.0916   -3.5867   -1.5805 H         1 <0>         0.0000
     23 H10         0.7284    1.9068    1.0148 H         1 <0>         0.0000
     24 H11        -1.0457    2.0004    1.0421 H         1 <0>         0.0000
     25 H12        -0.0755    3.1532    1.9840 H         1 <0>         0.0000
     26 H13        -1.0437    1.4031    3.4874 H         1 <0>         0.0000
     27 H14         0.7246    1.2978    3.4601 H         1 <0>         0.0000
@<TRIPOS>BOND
     1    1    2 ar
     2    1    4 ar
     3    1   14 1
     4    2    6 ar
     5    2   15 1
     6    3    4 ar
     7    3    5 ar
     8    3   16 1
     9    4    7 1
    10    5    6 ar
    11    5    8 1
    12    6   13 1
    13    7    9 1
    14    7   12 2
    15    8   17 1
    16    8   18 1
    17    8   19 1
    18    9   20 1
    19    9   21 1
    20    9   22 1
    21   10   11 1
    22   10   23 1
    23   10   24 1
    24   10   25 1
    25   11   13 1
    26   11   26 1
    27   11   27 1
