@<TRIPOS>MOLECULE
*****
   44    46     0     0     0
SMALL
NO_CHARGES

@<TRIPOS>ATOM
      1 C1          3.0305    2.5454   -3.6335 C.ar      1 <0>         0.0000
      2 C2          2.7826    3.0263   -4.9221 C.ar      1 <0>         0.0000
      3 C3          1.9878    1.9437   -2.9288 C.ar      1 <0>         0.0000
      4 C4          1.4934    2.8815   -5.4416 C.ar      1 <0>         0.0000
      5 C5          0.7284    1.8456   -3.5367 C.ar      1 <0>         0.0000
      6 C6         -0.4939    2.6351    0.6302 C.3       1 <0>         0.0000
      7 C7         -1.2438    1.5147    1.3645 C.3       1 <0>         0.0000
      8 C8         -1.6559   -1.0301    1.4173 C.3       1 <0>         0.0000
      9 C9         -0.7090    2.5472   -0.8823 C.3       1 <0>         0.0000
     10 C10        -0.8130   -2.2719    1.0863 C.3       1 <0>         0.0000
     11 C11        -1.1562    0.1830   -0.7406 C.3       1 <0>         0.0000
     12 C12         0.5740   -0.2505    1.0506 C.3       1 <0>         0.0000
     13 C13        -0.8898    0.1437    0.7768 C.3       1 <0>         0.0000
     14 C14         1.5073   -2.2806   -1.5130 C.3       1 <0>         0.0000
     15 C15        -0.4323    1.1527   -2.8463 C.3       1 <0>         0.0000
     16 N1          0.4823    2.3099   -4.7723 N.ar      1 <0>         0.0000
     17 N2         -0.3554    1.2159   -1.3903 N.3       1 <0>         0.0000
     18 N3          0.5633   -1.7286    1.0462 N.pl3     1 <0>         0.0000
     19 O1          1.5287   -3.9811    0.5128 O.2       1 <0>         0.0000
     20 O2          3.0324   -1.9038    0.6008 O.2       1 <0>         0.0000
     21 S1          1.7664   -2.5575    0.2610 S.o2      1 <0>         0.0000
     22 H1          4.0176    2.6363   -3.1868 H         1 <0>         0.0000
     23 H2          3.5613    3.5034   -5.5102 H         1 <0>         0.0000
     24 H3          2.1258    1.5604   -1.9230 H         1 <0>         0.0000
     25 H4          1.2582    3.2454   -6.4410 H         1 <0>         0.0000
     26 H5         -0.8303    3.6149    0.9862 H         1 <0>         0.0000
     27 H6          0.5790    2.5679    0.8437 H         1 <0>         0.0000
     28 H7         -1.0163    1.5362    2.4367 H         1 <0>         0.0000
     29 H8         -2.3259    1.6738    1.2651 H         1 <0>         0.0000
     30 H9         -2.6818   -1.1200    1.0474 H         1 <0>         0.0000
     31 H10        -1.7017   -0.8879    2.5024 H         1 <0>         0.0000
     32 H11        -1.7652    2.7812   -1.1214 H         1 <0>         0.0000
     33 H12        -0.0920    3.2913   -1.3943 H         1 <0>         0.0000
     34 H13        -0.8871   -3.0578    1.8397 H         1 <0>         0.0000
     35 H14        -1.1048   -2.7070    0.1222 H         1 <0>         0.0000
     36 H15        -0.9069   -0.7796   -1.1958 H         1 <0>         0.0000
     37 H16        -2.2405    0.3411   -0.9023 H         1 <0>         0.0000
     38 H17         1.2549    0.1504    0.2991 H         1 <0>         0.0000
     39 H18         0.9059    0.1083    2.0312 H         1 <0>         0.0000
     40 H19         2.3130   -2.8016   -2.0336 H         1 <0>         0.0000
     41 H20         0.5430   -2.7011   -1.8025 H         1 <0>         0.0000
     42 H21         1.5557   -1.2103   -1.7185 H         1 <0>         0.0000
     43 H22        -1.3700    1.5724   -3.2465 H         1 <0>         0.0000
     44 H23        -0.4153    0.0967   -3.1442 H         1 <0>         0.0000
@<TRIPOS>BOND
     1    1    2 ar
     2    1    3 ar
     3    1   22 1
     4    2    4 ar
     5    2   23 1
     6    3    5 ar
     7    3   24 1
     8    4   16 ar
     9    4   25 1
    10    5   15 1
    11    5   16 ar
    12    6    7 1
    13    6    9 1
    14    6   26 1
    15    6   27 1
    16    7   13 1
    17    7   28 1
    18    7   29 1
    19    8   10 1
    20    8   13 1
    21    8   30 1
    22    8   31 1
    23    9   17 1
    24    9   32 1
    25    9   33 1
    26   10   18 1
    27   10   34 1
    28   10   35 1
    29   11   13 1
    30   11   17 1
    31   11   36 1
    32   11   37 1
    33   12   13 1
    34   12   18 1
    35   12   38 1
    36   12   39 1
    37   14   21 1
    38   14   40 1
    39   14   41 1
    40   14   42 1
    41   15   17 1
    42   15   43 1
    43   15   44 1
    44   18   21 1
    45   19   21 2
    46   20   21 2
