@<TRIPOS>MOLECULE
*****
   49    50     0     0     0
SMALL
NO_CHARGES

@<TRIPOS>ATOM
      1 C1          3.4248    5.9941    3.0104 C.ar      1 <0>         0.0000
      2 C2          1.0945    6.2022    3.6301 C.ar      1 <0>         0.0000
      3 C3          3.1860    4.7187    2.5196 C.ar      1 <0>         0.0000
      4 C4          0.8415    4.9201    3.1378 C.ar      1 <0>         0.0000
      5 C5          2.3818    6.7507    3.5741 C.ar      1 <0>         0.0000
      6 C6          1.8921    4.1747    2.5837 C.ar      1 <0>         0.0000
      7 C7          4.2406    0.7003    4.7333 C.2       1 <0>         0.0000
      8 C8          4.1495    0.0394    3.5250 C.2       1 <0>         0.0000
      9 C9          5.5271    0.4500    5.3282 C.2       1 <0>         0.0000
     10 C10         2.6921    8.1101    4.0858 C.2       1 <0>         0.0000
     11 C11         3.0861   -0.0063    2.4957 C.2       1 <0>         0.0000
     12 C12        -0.0509   -1.6510    1.9793 C.3       1 <0>         0.0000
     13 C13         0.0383    9.6993    6.8733 C.3       1 <0>         0.0000
     14 C14         0.6691   12.0388    6.1227 C.3       1 <0>         0.0000
     15 C15        -0.3591   -0.1771    2.2622 C.3       1 <0>         0.0000
     16 C16         1.8212   10.0656    5.1171 C.3       1 <0>         0.0000
     17 C17         0.5530    2.1945    2.3390 C.3       1 <0>         0.0000
     18 C18         0.5068   10.5715    5.7011 C.3       1 <0>         0.0000
     19 C19         0.8458    0.7311    2.0474 C.3       1 <0>         0.0000
     20 N1          6.3494   -0.3203    4.6602 N.2       1 <0>         0.0000
     21 O1          3.7984    8.6246    4.0504 O.2       1 <0>         0.0000
     22 O2          3.3052   -0.3642    1.3522 O.2       1 <0>         0.0000
     23 O3          1.7535    2.9160    2.0730 O.3       1 <0>         0.0000
     24 O4          1.6030    8.7299    4.6027 O.3       1 <0>         0.0000
     25 O5          1.8954    0.3662    2.9895 O.3       1 <0>         0.0000
     26 S1          5.6350   -0.7982    3.2282 S.3       1 <0>         0.0000
     27 Cl1         3.0574    1.7276    5.4501 Cl        1 <0>         0.0000
     28 Cl2         6.0101    1.1154    6.8521 Cl        1 <0>         0.0000
     29 H1          4.4201    6.4254    2.9721 H         1 <0>         0.0000
     30 H2          0.2845    6.7837    4.0568 H         1 <0>         0.0000
     31 H3          3.9816    4.1193    2.0874 H         1 <0>         0.0000
     32 H4         -0.1662    4.5221    3.1798 H         1 <0>         0.0000
     33 H5          0.7209   -2.0273    2.6567 H         1 <0>         0.0000
     34 H6         -0.9461   -2.2649    2.1161 H         1 <0>         0.0000
     35 H7          0.3062   -1.7909    0.9541 H         1 <0>         0.0000
     36 H8          0.7619    9.7353    7.6970 H         1 <0>         0.0000
     37 H9         -0.0756    8.6545    6.5710 H         1 <0>         0.0000
     38 H10        -0.9247   10.0503    7.2595 H         1 <0>         0.0000
     39 H11         1.4312   12.1420    6.9045 H         1 <0>         0.0000
     40 H12        -0.2708   12.4320    6.5234 H         1 <0>         0.0000
     41 H13         0.9653   12.6718    5.2790 H         1 <0>         0.0000
     42 H14        -1.1609    0.1716    1.6000 H         1 <0>         0.0000
     43 H15        -0.7196   -0.0570    3.2908 H         1 <0>         0.0000
     44 H16         2.1715   10.7019    4.2986 H         1 <0>         0.0000
     45 H17         2.6099   10.0289    5.8758 H         1 <0>         0.0000
     46 H18        -0.2640    2.5525    1.6992 H         1 <0>         0.0000
     47 H19         0.2645    2.3084    3.3900 H         1 <0>         0.0000
     48 H20        -0.2474   10.5208    4.9048 H         1 <0>         0.0000
     49 H21         1.2430    0.6197    1.0365 H         1 <0>         0.0000
@<TRIPOS>BOND
     1    1    3 ar
     2    1    5 ar
     3    1   29 1
     4    2    4 ar
     5    2    5 ar
     6    2   30 1
     7    3    6 ar
     8    3   31 1
     9    4    6 ar
    10    4   32 1
    11    5   10 1
    12    6   23 1
    13    7    8 2
    14    7    9 1
    15    7   27 1
    16    8   11 1
    17    8   26 1
    18    9   20 2
    19    9   28 1
    20   10   21 2
    21   10   24 1
    22   11   22 2
    23   11   25 1
    24   12   15 1
    25   12   33 1
    26   12   34 1
    27   12   35 1
    28   13   18 1
    29   13   36 1
    30   13   37 1
    31   13   38 1
    32   14   18 1
    33   14   39 1
    34   14   40 1
    35   14   41 1
    36   15   19 1
    37   15   42 1
    38   15   43 1
    39   16   18 1
    40   16   24 1
    41   16   44 1
    42   16   45 1
    43   17   19 1
    44   17   23 1
    45   17   46 1
    46   17   47 1
    47   18   48 1
    48   19   25 1
    49   19   49 1
    50   20   26 1
