@<TRIPOS>MOLECULE
*****
   44    46     0     0     0
SMALL
NO_CHARGES

@<TRIPOS>ATOM
      1 C1         -2.2263   -2.9546   -4.6542 C.ar      1 <0>         0.0000
      2 C2         -1.0981   -2.7528   -5.4502 C.ar      1 <0>         0.0000
      3 C3         -2.6272   -1.9300   -3.7929 C.ar      1 <0>         0.0000
      4 C4         -0.4296   -1.5270   -5.3473 C.ar      1 <0>         0.0000
      5 C5         -1.8892   -0.7396   -3.7546 C.ar      1 <0>         0.0000
      6 C6         -0.3954    2.0915   -0.0260 C.3       1 <0>         0.0000
      7 C7         -0.2019    0.8969    0.9160 C.3       1 <0>         0.0000
      8 C8         -0.0053   -1.6383    1.0967 C.3       1 <0>         0.0000
      9 C9         -1.5234    1.8346   -1.0268 C.3       1 <0>         0.0000
     10 C10         1.4689   -1.7227    1.5359 C.3       1 <0>         0.0000
     11 C11        -1.2547   -0.5514   -0.8351 C.3       1 <0>         0.0000
     12 C12         1.2712   -0.5268   -0.5909 C.3       1 <0>         0.0000
     13 C13        -0.0818   -0.4292    0.1391 C.3       1 <0>         0.0000
     14 C14         3.9019   -2.7088   -0.7539 C.3       1 <0>         0.0000
     15 C15        -2.2719    0.3949   -2.8261 C.3       1 <0>         0.0000
     16 N1         -0.8066   -0.5406   -4.5264 N.ar      1 <0>         0.0000
     17 N2         -1.2967    0.5834   -1.7533 N.3       1 <0>         0.0000
     18 N3          2.1758   -0.9431    0.4945 N.pl3     1 <0>         0.0000
     19 O1          4.4097   -1.4488    1.5132 O.2       1 <0>         0.0000
     20 O2          4.2444   -0.0944   -0.6565 O.2       1 <0>         0.0000
     21 S1          3.7881   -1.1808    0.2133 S.o2      1 <0>         0.0000
     22 H1         -2.7816   -3.8881   -4.7004 H         1 <0>         0.0000
     23 H2         -0.7436   -3.5157   -6.1375 H         1 <0>         0.0000
     24 H3         -3.4979   -2.0482   -3.1534 H         1 <0>         0.0000
     25 H4          0.4492   -1.3283   -5.9599 H         1 <0>         0.0000
     26 H5         -0.6219    2.9926    0.5548 H         1 <0>         0.0000
     27 H6          0.5284    2.2921   -0.5778 H         1 <0>         0.0000
     28 H7          0.6798    1.0481    1.5475 H         1 <0>         0.0000
     29 H8         -1.0692    0.8223    1.5857 H         1 <0>         0.0000
     30 H9         -0.2852   -2.5496    0.5554 H         1 <0>         0.0000
     31 H10        -0.6816   -1.5389    1.9502 H         1 <0>         0.0000
     32 H11        -2.4966    1.8137   -0.4935 H         1 <0>         0.0000
     33 H12        -1.5705    2.6516   -1.7540 H         1 <0>         0.0000
     34 H13         1.6489   -1.2663    2.5121 H         1 <0>         0.0000
     35 H14         1.8195   -2.7595    1.5866 H         1 <0>         0.0000
     36 H15        -1.1470   -1.4723   -1.4165 H         1 <0>         0.0000
     37 H16        -2.1995   -0.6412   -0.2582 H         1 <0>         0.0000
     38 H17         1.2104   -1.2755   -1.3954 H         1 <0>         0.0000
     39 H18         1.6130    0.4090   -1.0271 H         1 <0>         0.0000
     40 H19         4.9617   -2.8901   -0.9418 H         1 <0>         0.0000
     41 H20         3.4772   -3.5293   -0.1729 H         1 <0>         0.0000
     42 H21         3.3698   -2.5710   -1.6964 H         1 <0>         0.0000
     43 H22        -2.3009    1.3174   -3.4140 H         1 <0>         0.0000
     44 H23        -3.2909    0.2197   -2.4308 H         1 <0>         0.0000
@<TRIPOS>BOND
     1    1    2 ar
     2    1    3 ar
     3    1   22 1
     4    2    4 ar
     5    2   23 1
     6    3    5 ar
     7    3   24 1
     8    4   16 ar
     9    4   25 1
    10    5   15 1
    11    5   16 ar
    12    6    7 1
    13    6    9 1
    14    6   26 1
    15    6   27 1
    16    7   13 1
    17    7   28 1
    18    7   29 1
    19    8   10 1
    20    8   13 1
    21    8   30 1
    22    8   31 1
    23    9   17 1
    24    9   32 1
    25    9   33 1
    26   10   18 1
    27   10   34 1
    28   10   35 1
    29   11   13 1
    30   11   17 1
    31   11   36 1
    32   11   37 1
    33   12   13 1
    34   12   18 1
    35   12   38 1
    36   12   39 1
    37   14   21 1
    38   14   40 1
    39   14   41 1
    40   14   42 1
    41   15   17 1
    42   15   43 1
    43   15   44 1
    44   18   21 1
    45   19   21 2
    46   20   21 2
