@<TRIPOS>MOLECULE
*****
   24    24     0     0     0
SMALL
NO_CHARGES

@<TRIPOS>ATOM
      1 C1          0.1361   -0.8904   -1.5998 C.2       1 <0>         0.0000
      2 C2          1.0202    1.2578   -0.6789 C.2       1 <0>         0.0000
      3 C3         -0.9984   -0.9380    0.6083 C.3       1 <0>         0.0000
      4 C4          1.1859   -0.2502   -0.6700 C.3       1 <0>         0.0000
      5 C5         -1.1164   -1.3626   -0.8595 C.3       1 <0>         0.0000
      6 C6         -3.6715   -1.4553   -0.9465 C.3       1 <0>         0.0000
      7 C7          2.1228    3.3310   -0.4560 C.3       1 <0>         0.0000
      8 C8         -2.3942   -0.8746   -1.5616 C.3       1 <0>         0.0000
      9 O1          0.3241   -1.0215   -2.7911 O.2       1 <0>         0.0000
     10 O2         -0.0560    1.8213   -0.7783 O.2       1 <0>         0.0000
     11 O3          2.1991    1.8888   -0.5331 O.3       1 <0>         0.0000
     12 S1          0.8033   -0.8985    1.0044 S.3       1 <0>         0.0000
     13 H1         -1.4241    0.0553    0.7685 H         1 <0>         0.0000
     14 H2         -1.4694   -1.6445    1.2936 H         1 <0>         0.0000
     15 H3          2.1946   -0.5365   -0.9674 H         1 <0>         0.0000
     16 H4         -1.0781   -2.4596   -0.9106 H         1 <0>         0.0000
     17 H5         -3.6649   -2.5510   -0.9802 H         1 <0>         0.0000
     18 H6         -4.5557   -1.1099   -1.4917 H         1 <0>         0.0000
     19 H7         -3.7926   -1.1540    0.0998 H         1 <0>         0.0000
     20 H8          3.1525    3.6684   -0.3438 H         1 <0>         0.0000
     21 H9          1.5207    3.6295    0.4051 H         1 <0>         0.0000
     22 H10         1.6784    3.7347   -1.3681 H         1 <0>         0.0000
     23 H11        -2.4157    0.2201   -1.5210 H         1 <0>         0.0000
     24 H12        -2.3247   -1.1518   -2.6182 H         1 <0>         0.0000
@<TRIPOS>BOND
     1    1    4 1
     2    1    5 1
     3    1    9 2
     4    2    4 1
     5    2   10 2
     6    2   11 1
     7    3    5 1
     8    3   12 1
     9    3   13 1
    10    3   14 1
    11    4   12 1
    12    4   15 1
    13    5    8 1
    14    5   16 1
    15    6    8 1
    16    6   17 1
    17    6   18 1
    18    6   19 1
    19    7   11 1
    20    7   20 1
    21    7   21 1
    22    7   22 1
    23    8   23 1
    24    8   24 1
