@<TRIPOS>MOLECULE
*****
   28    30     0     0     0
SMALL
NO_CHARGES

@<TRIPOS>ATOM
      1 C1          2.2401   -0.3752   -3.0444 C.ar      1 <0>         0.0000
      2 C2          0.5257    1.8919    3.4680 C.ar      1 <0>         0.0000
      3 C3          1.3049    1.3062    2.4498 C.ar      1 <0>         0.0000
      4 C4          3.1044   -0.9844   -3.9462 C.ar      1 <0>         0.0000
      5 C5         -0.6838    0.3150    1.4046 C.ar      1 <0>         0.0000
      6 C6          4.3122   -1.9720   -2.0794 C.ar      1 <0>         0.0000
      7 C7          2.3738   -0.5382   -1.6534 C.ar      1 <0>         0.0000
      8 C8         -0.8377    1.6760    3.4168 C.ar      1 <0>         0.0000
      9 C9         -1.4237    0.9063    2.4097 C.ar      1 <0>         0.0000
     10 C10         0.7027    0.5451    1.4535 C.ar      1 <0>         0.0000
     11 C11         3.4288   -1.3472   -1.2023 C.ar      1 <0>         0.0000
     12 C12         4.1393   -1.7838   -3.4494 C.ar      1 <0>         0.0000
     13 C13         1.3778    0.1726   -0.7996 C.2       1 <0>         0.0000
     14 C14        -3.0590    1.7710    3.6671 C.3       1 <0>         0.0000
     15 O1          0.5015    0.8824   -1.2511 O.2       1 <0>         0.0000
     16 O2         -1.8114    2.1025    4.2973 O.3       1 <0>         0.0000
     17 O3         -2.7827    0.8243    2.6204 O.3       1 <0>         0.0000
     18 O4          1.5599   -0.0682    0.5264 O.3       1 <0>         0.0000
     19 F1          3.6408   -1.5574    0.1101 F         1 <0>         0.0000
     20 Cl1         5.2403   -2.5633   -4.5613 Cl        1 <0>         0.0000
     21 H1          1.4280    0.2511   -3.3988 H         1 <0>         0.0000
     22 H2          0.9776    2.4831    4.2575 H         1 <0>         0.0000
     23 H3          2.3818    1.4368    2.4335 H         1 <0>         0.0000
     24 H4          2.9834   -0.8469   -5.0153 H         1 <0>         0.0000
     25 H5         -1.1414   -0.2770    0.6215 H         1 <0>         0.0000
     26 H6          5.1121   -2.5881   -1.6836 H         1 <0>         0.0000
     27 H7         -3.7252    1.3133    4.4009 H         1 <0>         0.0000
     28 H8         -3.4975    2.6776    3.2282 H         1 <0>         0.0000
@<TRIPOS>BOND
     1    1    4 ar
     2    1    7 ar
     3    1   21 1
     4    2    3 ar
     5    2    8 ar
     6    2   22 1
     7    3   10 ar
     8    3   23 1
     9    4   12 ar
    10    4   24 1
    11    5    9 ar
    12    5   10 ar
    13    5   25 1
    14    6   11 ar
    15    6   12 ar
    16    6   26 1
    17    7   11 ar
    18    7   13 1
    19    8    9 ar
    20    8   16 1
    21    9   17 1
    22   10   18 1
    23   11   19 1
    24   12   20 1
    25   13   15 2
    26   13   18 1
    27   14   16 1
    28   14   17 1
    29   14   27 1
    30   14   28 1
