@<TRIPOS>MOLECULE
*****
   17    18     0     0     0
SMALL
NO_CHARGES

@<TRIPOS>ATOM
      1 C1         -0.3834   -0.5853    2.7268 C.2       1 <0>         0.0000
      2 C2         -0.8276    0.2201    3.7251 C.2       1 <0>         0.0000
      3 C3         -0.5040    0.2257    1.5435 C.2       1 <0>         0.0000
      4 C4          0.2493   -1.6073   -0.2090 C.2       1 <0>         0.0000
      5 C5         -0.8026    0.6706   -0.9621 C.3       1 <0>         0.0000
      6 C6          0.6313    0.9464   -0.6305 C.3       1 <0>         0.0000
      7 C7         -0.1311   -0.1337    0.1502 C.3       1 <0>         0.0000
      8 N1         -0.9886    1.4227    1.8410 N.2       1 <0>         0.0000
      9 O1          0.5335   -1.7865   -1.4230 O.co2     1 <0>         0.0000
     10 O2          0.2383   -2.4482    0.7327 O.co2     1 <0>         0.0000
     11 O3         -1.1985    1.4310    3.2418 O.3       1 <0>         0.0000
     12 H1         -0.0328   -1.6056    2.7303 H         1 <0>         0.0000
     13 H2         -0.9450    0.0881    4.7939 H         1 <0>         0.0000
     14 H3         -1.5457    1.4009   -0.6546 H         1 <0>         0.0000
     15 H4         -0.9993    0.1024   -1.8650 H         1 <0>         0.0000
     16 H5          1.3838    0.5641   -1.3123 H         1 <0>         0.0000
     17 H6          0.8613    1.8611   -0.0906 H         1 <0>         0.0000
@<TRIPOS>BOND
     1    1    2 2
     2    1    3 1
     3    1   12 1
     4    2   11 1
     5    2   13 1
     6    3    7 1
     7    3    8 2
     8    4    7 1
     9    4    9 1
    10    4   10 2
    11    5    6 1
    12    5    7 1
    13    5   14 1
    14    5   15 1
    15    6    7 1
    16    6   16 1
    17    6   17 1
    18    8   11 1
