@<TRIPOS>MOLECULE
*****
   36    38     0     0     0
SMALL
NO_CHARGES

@<TRIPOS>ATOM
      1 C1         -4.6901   -1.5956   -1.2646 C.ar      1 <0>         0.0000
      2 C2         -5.4283   -1.4465   -0.0926 C.ar      1 <0>         0.0000
      3 C3         -3.5257   -0.8446   -1.4577 C.ar      1 <0>         0.0000
      4 C4         -3.8288    0.2108    0.6852 C.ar      1 <0>         0.0000
      5 C5         -4.9975   -0.5345    0.8823 C.ar      1 <0>         0.0000
      6 C6         -3.0747    0.0585   -0.4842 C.ar      1 <0>         0.0000
      7 C7          1.2952   -1.1942   -0.8773 C.2       1 <0>         0.0000
      8 C8         -0.6148    0.2731    1.4569 C.2       1 <0>         0.0000
      9 C9          1.9515   -2.1188   -1.5835 C.2       1 <0>         0.0000
     10 C10        -5.8178   -0.3905    2.1140 C.2       1 <0>         0.0000
     11 C11         1.8954    0.0702   -0.2989 C.3       1 <0>         0.0000
     12 C12        -0.1982   -1.1997   -0.5843 C.3       1 <0>         0.0000
     13 C13         0.7175    2.0685    0.8472 C.3       1 <0>         0.0000
     14 C14         0.7356    1.0861   -0.3252 C.3       1 <0>         0.0000
     15 C15        -0.5218    0.2212   -0.0740 C.3       1 <0>         0.0000
     16 C16        -1.8008    0.8459   -0.6958 C.3       1 <0>         0.0000
     17 O1         -1.1834   -0.4965    2.1933 O.2       1 <0>         0.0000
     18 O2         -6.8212   -1.0367    2.3635 O.2       1 <0>         0.0000
     19 O3          0.0571    1.3666    1.9296 O.3       1 <0>         0.0000
     20 O4         -5.3437    0.5584    2.9669 O.3       1 <0>         0.0000
     21 H1         -5.0209   -2.2897   -2.0324 H         1 <0>         0.0000
     22 H2         -6.3362   -2.0148    0.0826 H         1 <0>         0.0000
     23 H3         -2.9662   -0.9567   -2.3840 H         1 <0>         0.0000
     24 H4         -3.5088    0.9038    1.4557 H         1 <0>         0.0000
     25 H5          1.4464   -2.9970   -1.9800 H         1 <0>         0.0000
     26 H6          3.0180   -2.0342   -1.7796 H         1 <0>         0.0000
     27 H7          2.1972   -0.1100    0.7425 H         1 <0>         0.0000
     28 H8          2.7810    0.4129   -0.8405 H         1 <0>         0.0000
     29 H9         -0.7668   -1.4345   -1.4879 H         1 <0>         0.0000
     30 H10        -0.4761   -1.9467    0.1653 H         1 <0>         0.0000
     31 H11         1.7119    2.3494    1.2018 H         1 <0>         0.0000
     32 H12         0.1470    2.9769    0.6284 H         1 <0>         0.0000
     33 H13         0.6945    1.6039   -1.2882 H         1 <0>         0.0000
     34 H14        -1.6091    0.9454   -1.7699 H         1 <0>         0.0000
     35 H15        -1.9286    1.8618   -0.3045 H         1 <0>         0.0000
     36 H16        -5.9448    0.5496    3.7358 H         1 <0>         0.0000
@<TRIPOS>BOND
     1    1    2 ar
     2    1    3 ar
     3    1   21 1
     4    2    5 ar
     5    2   22 1
     6    3    6 ar
     7    3   23 1
     8    4    5 ar
     9    4    6 ar
    10    4   24 1
    11    5   10 1
    12    6   16 1
    13    7    9 2
    14    7   11 1
    15    7   12 1
    16    8   15 1
    17    8   17 2
    18    8   19 1
    19    9   25 1
    20    9   26 1
    21   10   18 2
    22   10   20 1
    23   11   14 1
    24   11   27 1
    25   11   28 1
    26   12   15 1
    27   12   29 1
    28   12   30 1
    29   13   14 1
    30   13   19 1
    31   13   31 1
    32   13   32 1
    33   14   15 1
    34   14   33 1
    35   15   16 1
    36   16   34 1
    37   16   35 1
    38   20   36 1
