@<TRIPOS>MOLECULE
*****
   44    46     0     0     0
SMALL
NO_CHARGES

@<TRIPOS>ATOM
      1 C1          1.0828    4.0762   -5.3200 C.ar      1 <0>         0.0000
      2 C2          2.4465    4.0011   -5.0339 C.ar      1 <0>         0.0000
      3 C3          0.2298    3.1211   -4.7608 C.ar      1 <0>         0.0000
      4 C4          2.8888    2.9656   -4.2017 C.ar      1 <0>         0.0000
      5 C5          0.7667    2.1227   -3.9371 C.ar      1 <0>         0.0000
      6 C6         -0.5590    2.5318    0.1464 C.3       1 <0>         0.0000
      7 C7         -1.1438    1.3099    0.8649 C.3       1 <0>         0.0000
      8 C8         -1.2672   -1.2436    0.9044 C.3       1 <0>         0.0000
      9 C9         -0.7348    2.4148   -1.3691 C.3       1 <0>         0.0000
     10 C10        -0.2842   -2.3907    0.6261 C.3       1 <0>         0.0000
     11 C11        -0.8075    0.0085   -1.2480 C.3       1 <0>         0.0000
     12 C12         0.8789   -0.2447    0.6056 C.3       1 <0>         0.0000
     13 C13        -0.6062   -0.0026    0.2800 C.3       1 <0>         0.0000
     14 C14         2.6756   -3.8392    0.1914 C.3       1 <0>         0.0000
     15 C15        -0.1160    1.0642   -3.3078 C.3       1 <0>         0.0000
     16 N1          2.0802    2.0466   -3.6645 N.ar      1 <0>         0.0000
     17 N2         -0.1534    1.1640   -1.8508 N.3       1 <0>         0.0000
     18 N3          1.0488   -1.7270    0.5641 N.pl3     1 <0>         0.0000
     19 O1          3.2350   -1.3926   -0.6939 O.2       1 <0>         0.0000
     20 O2          1.3923   -2.7292   -1.8308 O.2       1 <0>         0.0000
     21 S1          2.1105   -2.3270   -0.6076 S.o2      1 <0>         0.0000
     22 H1          0.6901    4.8616   -5.9611 H         1 <0>         0.0000
     23 H2          3.1533    4.7181   -5.4423 H         1 <0>         0.0000
     24 H3         -0.8394    3.1477   -4.9537 H         1 <0>         0.0000
     25 H4          3.9469    2.8688   -3.9602 H         1 <0>         0.0000
     26 H5         -1.0428    3.4483    0.5029 H         1 <0>         0.0000
     27 H6          0.5104    2.6210    0.3677 H         1 <0>         0.0000
     28 H7         -0.9336    1.3563    1.9406 H         1 <0>         0.0000
     29 H8         -2.2371    1.3163    0.7563 H         1 <0>         0.0000
     30 H9         -2.2595   -1.4489    0.4911 H         1 <0>         0.0000
     31 H10        -1.3795   -1.0929    1.9839 H         1 <0>         0.0000
     32 H11        -1.8133    2.4798   -1.6266 H         1 <0>         0.0000
     33 H12        -0.2341    3.2512   -1.8642 H         1 <0>         0.0000
     34 H13        -0.2905   -3.1457    1.4183 H         1 <0>         0.0000
     35 H14        -0.5117   -2.8826   -0.3244 H         1 <0>         0.0000
     36 H15        -0.3833   -0.8953   -1.6951 H         1 <0>         0.0000
     37 H16        -1.8970   -0.0012   -1.4597 H         1 <0>         0.0000
     38 H17         1.5502    0.2478   -0.0970 H         1 <0>         0.0000
     39 H18         1.1206    0.0984    1.6182 H         1 <0>         0.0000
     40 H19         3.3578   -4.3242   -0.5090 H         1 <0>         0.0000
     41 H20         3.1877   -3.5667    1.1139 H         1 <0>         0.0000
     42 H21         1.8173   -4.4832    0.3871 H         1 <0>         0.0000
     43 H22        -1.1286    1.1248   -3.7510 H         1 <0>         0.0000
     44 H23         0.2984    0.0829   -3.5591 H         1 <0>         0.0000
@<TRIPOS>BOND
     1    1    2 ar
     2    1    3 ar
     3    1   22 1
     4    2    4 ar
     5    2   23 1
     6    3    5 ar
     7    3   24 1
     8    4   16 ar
     9    4   25 1
    10    5   15 1
    11    5   16 ar
    12    6    7 1
    13    6    9 1
    14    6   26 1
    15    6   27 1
    16    7   13 1
    17    7   28 1
    18    7   29 1
    19    8   10 1
    20    8   13 1
    21    8   30 1
    22    8   31 1
    23    9   17 1
    24    9   32 1
    25    9   33 1
    26   10   18 1
    27   10   34 1
    28   10   35 1
    29   11   13 1
    30   11   17 1
    31   11   36 1
    32   11   37 1
    33   12   13 1
    34   12   18 1
    35   12   38 1
    36   12   39 1
    37   14   21 1
    38   14   40 1
    39   14   41 1
    40   14   42 1
    41   15   17 1
    42   15   43 1
    43   15   44 1
    44   18   21 1
    45   19   21 2
    46   20   21 2
