@<TRIPOS>MOLECULE
*****
   39    41     0     0     0
SMALL
NO_CHARGES

@<TRIPOS>ATOM
      1 C1         -1.3165    0.7446    2.1175 C.ar      1 <0>         0.0000
      2 C2         -1.9051    1.5078    1.1110 C.ar      1 <0>         0.0000
      3 C3          4.7870   -4.8187    0.6574 C.ar      1 <0>         0.0000
      4 C4         -0.2544   -0.1029    1.8133 C.ar      1 <0>         0.0000
      5 C5          5.2735   -3.8207   -0.1733 C.ar      1 <0>         0.0000
      6 C6          3.1788   -3.3137    1.5928 C.ar      1 <0>         0.0000
      7 C7         -1.4465    1.4460   -0.2109 C.ar      1 <0>         0.0000
      8 C8          3.7296   -4.5888    1.5634 C.ar      1 <0>         0.0000
      9 C9          0.2469   -0.1700    0.5078 C.ar      1 <0>         0.0000
     10 C10        -0.3524    0.6041   -0.5055 C.ar      1 <0>         0.0000
     11 C11         4.7221   -2.5258   -0.1460 C.ar      1 <0>         0.0000
     12 C12         3.6558   -2.2959    0.7475 C.ar      1 <0>         0.0000
     13 C13        -2.1774    2.3139   -1.2092 C.2       1 <0>         0.0000
     14 C14         1.3769   -1.4186   -1.2414 C.3       1 <0>         0.0000
     15 C15         1.2947   -0.1627   -2.0939 C.3       1 <0>         0.0000
     16 C16         3.2292   -5.6921    2.4657 C.3       1 <0>         0.0000
     17 N1          1.3135   -1.0791    0.1904 N.pl3     1 <0>         0.0000
     18 O1         -3.1238    3.0004   -0.8801 O.2       1 <0>         0.0000
     19 O2          2.6150   -0.3526    2.2706 O.2       1 <0>         0.0000
     20 O3          3.6006    0.2257    0.0056 O.2       1 <0>         0.0000
     21 O4          0.0589    0.5259   -1.8186 O.3       1 <0>         0.0000
     22 O5          5.2483   -1.6150   -0.9981 O.3       1 <0>         0.0000
     23 O6         -1.7508    2.3159   -2.4916 O.3       1 <0>         0.0000
     24 S1          2.8573   -0.7152    0.8801 S.o2      1 <0>         0.0000
     25 H1         -1.6907    0.7984    3.1352 H         1 <0>         0.0000
     26 H2         -2.7417    2.1668    1.3169 H         1 <0>         0.0000
     27 H3          5.2406   -5.8065    0.6112 H         1 <0>         0.0000
     28 H4          0.2071   -0.7153    2.5786 H         1 <0>         0.0000
     29 H5          6.0940   -4.0052   -0.8601 H         1 <0>         0.0000
     30 H6          2.3657   -3.0838    2.2755 H         1 <0>         0.0000
     31 H7          0.5339   -2.0827   -1.4542 H         1 <0>         0.0000
     32 H8          2.2942   -1.9699   -1.4557 H         1 <0>         0.0000
     33 H9          2.1318    0.5065   -1.8814 H         1 <0>         0.0000
     34 H10         1.2649   -0.3982   -3.1592 H         1 <0>         0.0000
     35 H11         4.0303   -6.0674    3.1118 H         1 <0>         0.0000
     36 H12         2.4172   -5.3434    3.1089 H         1 <0>         0.0000
     37 H13         2.8549   -6.5411    1.8831 H         1 <0>         0.0000
     38 H14         4.8596   -0.7311   -0.8073 H         1 <0>         0.0000
     39 H15        -0.9864    1.7121   -2.5883 H         1 <0>         0.0000
@<TRIPOS>BOND
     1    1    2 ar
     2    1    4 ar
     3    1   25 1
     4    2    7 ar
     5    2   26 1
     6    3    5 ar
     7    3    8 ar
     8    3   27 1
     9    4    9 ar
    10    4   28 1
    11    5   11 ar
    12    5   29 1
    13    6    8 ar
    14    6   12 ar
    15    6   30 1
    16    7   10 ar
    17    7   13 1
    18    8   16 1
    19    9   10 ar
    20    9   17 1
    21   10   21 1
    22   11   12 ar
    23   11   22 1
    24   12   24 1
    25   13   18 2
    26   13   23 1
    27   14   15 1
    28   14   17 1
    29   14   31 1
    30   14   32 1
    31   15   21 1
    32   15   33 1
    33   15   34 1
    34   16   35 1
    35   16   36 1
    36   16   37 1
    37   17   24 1
    38   19   24 2
    39   20   24 2
    40   22   38 1
    41   23   39 1
