@<TRIPOS>MOLECULE
*****
   44    47     0     0     0
SMALL
NO_CHARGES

@<TRIPOS>ATOM
      1 C1         -0.9483   -0.4941    2.5847 C.1       1 <0>         0.0000
      2 C2          1.8256    2.0000   -1.8133 C.ar      1 <0>         0.0000
      3 C3          1.7519    0.6085   -1.5586 C.ar      1 <0>         0.0000
      4 C4          0.7722    2.8747   -1.5281 C.ar      1 <0>         0.0000
      5 C5         -0.4784    0.9153   -0.7918 C.ar      1 <0>         0.0000
      6 C6          0.5872    0.0470   -1.0400 C.ar      1 <0>         0.0000
      7 C7         -1.7538    0.6064   -0.2334 C.2       1 <0>         0.0000
      8 C8         -0.3906    2.3120   -0.9854 C.ar      1 <0>         0.0000
      9 C9         -2.4075    1.8043   -0.0632 C.2       1 <0>         0.0000
     10 C10         1.6189   -2.0920   -0.1926 C.2       1 <0>         0.0000
     11 C11         1.8963   -2.2999    1.0997 C.2       1 <0>         0.0000
     12 C12         3.9332   -4.7439    2.8789 C.2       1 <0>         0.0000
     13 C13        -2.0589   -0.8281    0.0796 C.3       1 <0>         0.0000
     14 C14         0.9641   -1.8808    2.2077 C.3       1 <0>         0.0000
     15 C15         0.3569   -1.4185   -0.6713 C.3       1 <0>         0.0000
     16 C16        -0.7503   -1.5735    0.4072 C.3       1 <0>         0.0000
     17 C17         3.4905   -5.9375    3.6899 C.3       1 <0>         0.0000
     18 C18        -3.6973    2.1258    0.6143 C.3       1 <0>         0.0000
     19 C19         3.1851   -2.9279    1.5375 C.3       1 <0>         0.0000
     20 N1         -1.6179    0.0745    3.3600 N.1       1 <0>         0.0000
     21 N2         -1.5808    2.8390   -0.5082 N.pl3     1 <0>         0.0000
     22 N3         -0.1753   -1.1108    1.6919 N.3       1 <0>         0.0000
     23 O1          5.0817   -4.3796    2.7212 O.2       1 <0>         0.0000
     24 O2         -4.2721    3.2775   -0.0266 O.3       1 <0>         0.0000
     25 O3          2.8664   -4.1052    2.3315 O.3       1 <0>         0.0000
     26 H1          2.7457    2.4064   -2.2252 H         1 <0>         0.0000
     27 H2          2.6254   -0.0064   -1.7583 H         1 <0>         0.0000
     28 H3          0.8728    3.9426   -1.7039 H         1 <0>         0.0000
     29 H4          2.3389   -2.4033   -0.9472 H         1 <0>         0.0000
     30 H5         -2.7681   -0.9456    0.9035 H         1 <0>         0.0000
     31 H6         -2.4999   -1.3302   -0.7914 H         1 <0>         0.0000
     32 H7          0.6216   -2.7709    2.7558 H         1 <0>         0.0000
     33 H8          1.5043   -1.2516    2.9235 H         1 <0>         0.0000
     34 H9          0.0022   -1.9548   -1.5628 H         1 <0>         0.0000
     35 H10        -0.9768   -2.6454    0.4975 H         1 <0>         0.0000
     36 H11         2.8564   -5.6085    4.5187 H         1 <0>         0.0000
     37 H12         4.3659   -6.4571    4.0782 H         1 <0>         0.0000
     38 H13         2.8954   -6.6139    3.0700 H         1 <0>         0.0000
     39 H14        -4.3687    1.2601    0.5549 H         1 <0>         0.0000
     40 H15        -3.5081    2.3349    1.6775 H         1 <0>         0.0000
     41 H16         3.7770   -2.2479    2.1597 H         1 <0>         0.0000
     42 H17         3.7976   -3.2250    0.6833 H         1 <0>         0.0000
     43 H18        -1.9159    3.7862   -0.6217 H         1 <0>         0.0000
     44 H19        -4.9765    3.6191    0.5452 H         1 <0>         0.0000
@<TRIPOS>BOND
     1    1   20 3
     2    1   22 1
     3    2    3 ar
     4    2    4 ar
     5    2   26 1
     6    3    6 ar
     7    3   27 1
     8    4    8 ar
     9    4   28 1
    10    5    6 ar
    11    5    7 1
    12    5    8 ar
    13    6   15 1
    14    7    9 2
    15    7   13 1
    16    8   21 1
    17    9   18 1
    18    9   21 1
    19   10   11 2
    20   10   15 1
    21   10   29 1
    22   11   14 1
    23   11   19 1
    24   12   17 1
    25   12   23 2
    26   12   25 1
    27   13   16 1
    28   13   30 1
    29   13   31 1
    30   14   22 1
    31   14   32 1
    32   14   33 1
    33   15   16 1
    34   15   34 1
    35   16   22 1
    36   16   35 1
    37   17   36 1
    38   17   37 1
    39   17   38 1
    40   18   24 1
    41   18   39 1
    42   18   40 1
    43   19   25 1
    44   19   41 1
    45   19   42 1
    46   21   43 1
    47   24   44 1
