@<TRIPOS>MOLECULE
*****
   19    19     0     0     0
SMALL
NO_CHARGES

@<TRIPOS>ATOM
      1 C1          1.9228   -1.0570   -0.0727 C.ar      1 <0>         0.0000
      2 C2          0.6744   -0.4336    1.9372 C.ar      1 <0>         0.0000
      3 C3          2.8057   -1.6180    2.1212 C.ar      1 <0>         0.0000
      4 C4          0.8314   -0.4744    0.5529 C.ar      1 <0>         0.0000
      5 C5          2.9266   -1.6384    0.7231 C.ar      1 <0>         0.0000
      6 C6          1.6847   -1.0174    2.6985 C.ar      1 <0>         0.0000
      7 C7          6.5958   -3.6563    0.5650 C.3       1 <0>         0.0000
      8 C8          5.3663   -3.0006    1.1957 C.3       1 <0>         0.0000
      9 F1         -0.1339    0.0848   -0.2173 F         1 <0>         0.0000
     10 S1          4.2924   -2.3651   -0.1445 S.3       1 <0>         0.0000
     11 Cl1         1.5455   -0.9986    4.4486 Cl        1 <0>         0.0000
     12 H1          1.9838   -1.0547   -1.1568 H         1 <0>         0.0000
     13 H2         -0.1953    0.0324    2.3859 H         1 <0>         0.0000
     14 H3          3.5574   -2.0552    2.7652 H         1 <0>         0.0000
     15 H4          6.3129   -4.4871   -0.0882 H         1 <0>         0.0000
     16 H5          7.1725   -2.9368   -0.0238 H         1 <0>         0.0000
     17 H6          7.2467   -4.0502    1.3519 H         1 <0>         0.0000
     18 H7          5.6632   -2.1694    1.8418 H         1 <0>         0.0000
     19 H8          4.8056   -3.7273    1.7906 H         1 <0>         0.0000
@<TRIPOS>BOND
     1    1    4 ar
     2    1    5 ar
     3    1   12 1
     4    2    4 ar
     5    2    6 ar
     6    2   13 1
     7    3    5 ar
     8    3    6 ar
     9    3   14 1
    10    4    9 1
    11    5   10 1
    12    6   11 1
    13    7    8 1
    14    7   15 1
    15    7   16 1
    16    7   17 1
    17    8   10 1
    18    8   18 1
    19    8   19 1
