@<TRIPOS>MOLECULE
*****
   44    46     0     0     0
SMALL
NO_CHARGES

@<TRIPOS>ATOM
      1 C1          3.3396   -1.0238   -4.0643 C.ar      1 <0>         0.0000
      2 C2          2.9002   -1.5759   -5.2703 C.ar      1 <0>         0.0000
      3 C3          2.5438   -0.0665   -3.4389 C.ar      1 <0>         0.0000
      4 C4          1.6734   -1.1486   -5.7832 C.ar      1 <0>         0.0000
      5 C5          1.3187    0.2836   -4.0212 C.ar      1 <0>         0.0000
      6 C6         -0.2624    2.2300    0.2355 C.3       1 <0>         0.0000
      7 C7         -0.7804    0.8806    0.7483 C.3       1 <0>         0.0000
      8 C8         -0.6360   -1.6624    0.4569 C.3       1 <0>         0.0000
      9 C9         -0.3398    2.3023   -1.2909 C.3       1 <0>         0.0000
     10 C10         0.4793   -2.6589    0.1131 C.3       1 <0>         0.0000
     11 C11        -0.1955   -0.0971   -1.4765 C.3       1 <0>         0.0000
     12 C12         1.4057   -0.4102    0.4547 C.3       1 <0>         0.0000
     13 C13        -0.0757   -0.2872    0.0471 C.3       1 <0>         0.0000
     14 C14         3.9254   -3.3418    0.8036 C.3       1 <0>         0.0000
     15 C15         0.4014    1.2971   -3.3644 C.3       1 <0>         0.0000
     16 N1          0.8848   -0.2494   -5.1753 N.ar      1 <0>         0.0000
     17 N2          0.3727    1.1807   -1.9047 N.3       1 <0>         0.0000
     18 N3          1.7122   -1.8541    0.2984 N.pl3     1 <0>         0.0000
     19 O1          3.9488   -1.1652   -0.6968 O.2       1 <0>         0.0000
     20 O2          2.7819   -3.2603   -1.5684 O.2       1 <0>         0.0000
     21 S1          3.1130   -2.3508   -0.4634 S.o2      1 <0>         0.0000
     22 H1          4.2718   -1.3393   -3.6060 H         1 <0>         0.0000
     23 H2          3.4805   -2.3304   -5.7940 H         1 <0>         0.0000
     24 H3          2.8444    0.3759   -2.4965 H         1 <0>         0.0000
     25 H4          1.2948   -1.5576   -6.7193 H         1 <0>         0.0000
     26 H5         -0.8450    3.0504    0.6694 H         1 <0>         0.0000
     27 H6          0.7790    2.3734    0.5460 H         1 <0>         0.0000
     28 H7         -0.6506    0.8034    1.8347 H         1 <0>         0.0000
     29 H8         -1.8586    0.8076    0.5515 H         1 <0>         0.0000
     30 H9         -1.5711   -1.9071   -0.0557 H         1 <0>         0.0000
     31 H10        -0.8316   -1.6707    1.5350 H         1 <0>         0.0000
     32 H11        -1.4036    2.3171   -1.6043 H         1 <0>         0.0000
     33 H12         0.1125    3.2347   -1.6452 H         1 <0>         0.0000
     34 H13         0.4818   -3.5275    0.7795 H         1 <0>         0.0000
     35 H14         0.4074   -3.0199   -0.9163 H         1 <0>         0.0000
     36 H15         0.3301   -0.9006   -1.9989 H         1 <0>         0.0000
     37 H16        -1.2643   -0.1740   -1.7592 H         1 <0>         0.0000
     38 H17         2.0605    0.1985   -0.1652 H         1 <0>         0.0000
     39 H18         1.5476   -0.1214    1.5035 H         1 <0>         0.0000
     40 H19         4.8434   -3.7374    0.3647 H         1 <0>         0.0000
     41 H20         4.1459   -2.6960    1.6538 H         1 <0>         0.0000
     42 H21         3.2580   -4.1564    1.0884 H         1 <0>         0.0000
     43 H22         0.7559    2.3066   -3.6079 H         1 <0>         0.0000
     44 H23        -0.5988    1.1896   -3.8170 H         1 <0>         0.0000
@<TRIPOS>BOND
     1    1    2 ar
     2    1    3 ar
     3    1   22 1
     4    2    4 ar
     5    2   23 1
     6    3    5 ar
     7    3   24 1
     8    4   16 ar
     9    4   25 1
    10    5   15 1
    11    5   16 ar
    12    6    7 1
    13    6    9 1
    14    6   26 1
    15    6   27 1
    16    7   13 1
    17    7   28 1
    18    7   29 1
    19    8   10 1
    20    8   13 1
    21    8   30 1
    22    8   31 1
    23    9   17 1
    24    9   32 1
    25    9   33 1
    26   10   18 1
    27   10   34 1
    28   10   35 1
    29   11   13 1
    30   11   17 1
    31   11   36 1
    32   11   37 1
    33   12   13 1
    34   12   18 1
    35   12   38 1
    36   12   39 1
    37   14   21 1
    38   14   40 1
    39   14   41 1
    40   14   42 1
    41   15   17 1
    42   15   43 1
    43   15   44 1
    44   18   21 1
    45   19   21 2
    46   20   21 2
