@<TRIPOS>MOLECULE
*****
   66    68     0     0     0
SMALL
NO_CHARGES

@<TRIPOS>ATOM
      1 C1          3.7330   -4.9449    3.9904 C.ar      1 <0>         0.0000
      2 C2          2.6649   -4.8078    3.1018 C.ar      1 <0>         0.0000
      3 C3         -0.3057   -0.8810    1.8214 C.ar      1 <0>         0.0000
      4 C4         -0.1120   -2.2401   -0.1527 C.ar      1 <0>         0.0000
      5 C5          1.2342   -4.1759    4.9789 C.ar      1 <0>         0.0000
      6 C6         -0.0811   -1.9955    2.6404 C.ar      1 <0>         0.0000
      7 C7          3.5849   -4.7076    5.3586 C.ar      1 <0>         0.0000
      8 C8         -0.3160   -0.9805    0.4253 C.ar      1 <0>         0.0000
      9 C9          1.4322   -4.4322    3.6151 C.ar      1 <0>         0.0000
     10 C10         0.1334   -3.2393    2.0369 C.ar      1 <0>         0.0000
     11 C11         0.1138   -3.3675    0.6386 C.ar      1 <0>         0.0000
     12 C12         2.3263   -4.3142    5.8586 C.ar      1 <0>         0.0000
     13 C13        -0.1785   -3.8928    5.4012 C.2       1 <0>         0.0000
     14 C14        -0.0163   -1.8087    4.1383 C.3       1 <0>         0.0000
     15 C15        -0.5277    0.2393   -0.4417 C.3       1 <0>         0.0000
     16 C16        -1.3456   -8.3522    1.4743 C.3       1 <0>         0.0000
     17 C17         3.9842   -8.5637    7.4879 C.3       1 <0>         0.0000
     18 C18         3.7798   -6.4924    8.9165 C.3       1 <0>         0.0000
     19 C19         0.3489   -6.8640   -1.7427 C.3       1 <0>         0.0000
     20 C20         1.3480   -3.1565    7.7705 C.3       1 <0>         0.0000
     21 C21        -1.0554   -8.0675   -0.0057 C.3       1 <0>         0.0000
     22 C22         4.9523   -6.3938    6.6549 C.3       1 <0>         0.0000
     23 C23        -0.6313   -5.5893    0.2015 C.3       1 <0>         0.0000
     24 C24         4.7662   -4.9094    6.2856 C.3       1 <0>         0.0000
     25 C25         3.8243   -7.0364    7.4811 C.3       1 <0>         0.0000
     26 C26        -0.0576   -6.9229   -0.2642 C.3       1 <0>         0.0000
     27 O1         -0.8075   -4.6102    6.1485 O.2       1 <0>         0.0000
     28 O2          0.3110   -4.3935    2.7894 O.3       1 <0>         0.0000
     29 O3         -0.7756   -2.7807    4.8906 O.3       1 <0>         0.0000
     30 O4          5.9318   -4.4262    5.5893 O.3       1 <0>         0.0000
     31 O5          2.2725   -4.0939    7.2064 O.3       1 <0>         0.0000
     32 O6          0.3844   -4.5705    0.0375 O.3       1 <0>         0.0000
     33 H1          4.7152   -5.2234    3.6224 H         1 <0>         0.0000
     34 H2          2.7651   -5.0014    2.0383 H         1 <0>         0.0000
     35 H3         -0.4808    0.0866    2.2879 H         1 <0>         0.0000
     36 H4         -0.1163   -2.3681   -1.2323 H         1 <0>         0.0000
     37 H5          1.0221   -1.8063    4.4831 H         1 <0>         0.0000
     38 H6         -0.4615   -0.8477    4.4025 H         1 <0>         0.0000
     39 H7          0.4275    0.6184   -0.8243 H         1 <0>         0.0000
     40 H8         -1.1577    0.0098   -1.3065 H         1 <0>         0.0000
     41 H9         -1.0041    1.0491    0.1181 H         1 <0>         0.0000
     42 H10        -0.4177   -8.5363    2.0278 H         1 <0>         0.0000
     43 H11        -1.8618   -7.5222    1.9660 H         1 <0>         0.0000
     44 H12        -1.9793   -9.2389    1.5816 H         1 <0>         0.0000
     45 H13         4.9394   -8.8570    7.9415 H         1 <0>         0.0000
     46 H14         3.1830   -9.0398    8.0636 H         1 <0>         0.0000
     47 H15         3.9564   -8.9722    6.4716 H         1 <0>         0.0000
     48 H16         4.7151   -6.7169    9.4455 H         1 <0>         0.0000
     49 H17         3.6231   -5.4113    8.9349 H         1 <0>         0.0000
     50 H18         2.9609   -6.9532    9.4797 H         1 <0>         0.0000
     51 H19        -0.5288   -6.6994   -2.3805 H         1 <0>         0.0000
     52 H20         0.8167   -7.8038   -2.0557 H         1 <0>         0.0000
     53 H21         1.0564   -6.0511   -1.9259 H         1 <0>         0.0000
     54 H22         1.8060   -2.8172    8.7016 H         1 <0>         0.0000
     55 H23         0.3857   -3.6272    7.9771 H         1 <0>         0.0000
     56 H24         1.2073   -2.2950    7.1079 H         1 <0>         0.0000
     57 H25        -1.9949   -7.8545   -0.5343 H         1 <0>         0.0000
     58 H26        -0.6505   -8.9757   -0.4688 H         1 <0>         0.0000
     59 H27         5.8939   -6.4921    7.2177 H         1 <0>         0.0000
     60 H28         5.0872   -6.9467    5.7173 H         1 <0>         0.0000
     61 H29        -0.9289   -5.6340    1.2503 H         1 <0>         0.0000
     62 H30        -1.5056   -5.3092   -0.4045 H         1 <0>         0.0000
     63 H31         4.6123   -4.3161    7.1920 H         1 <0>         0.0000
     64 H32         2.8681   -6.8026    6.9981 H         1 <0>         0.0000
     65 H33         0.8415   -7.1101    0.3387 H         1 <0>         0.0000
     66 H34         6.7065   -4.6643    6.1226 H         1 <0>         0.0000
@<TRIPOS>BOND
     1    1    2 ar
     2    1    7 ar
     3    1   33 1
     4    2    9 ar
     5    2   34 1
     6    3    6 ar
     7    3    8 ar
     8    3   35 1
     9    4    8 ar
    10    4   11 ar
    11    4   36 1
    12    5    9 ar
    13    5   12 ar
    14    5   13 1
    15    6   10 ar
    16    6   14 1
    17    7   12 ar
    18    7   24 1
    19    8   15 1
    20    9   28 1
    21   10   11 ar
    22   10   28 1
    23   11   32 1
    24   12   31 1
    25   13   27 2
    26   13   29 1
    27   14   29 1
    28   14   37 1
    29   14   38 1
    30   15   39 1
    31   15   40 1
    32   15   41 1
    33   16   21 1
    34   16   42 1
    35   16   43 1
    36   16   44 1
    37   17   25 1
    38   17   45 1
    39   17   46 1
    40   17   47 1
    41   18   25 1
    42   18   48 1
    43   18   49 1
    44   18   50 1
    45   19   26 1
    46   19   51 1
    47   19   52 1
    48   19   53 1
    49   20   31 1
    50   20   54 1
    51   20   55 1
    52   20   56 1
    53   21   26 1
    54   21   57 1
    55   21   58 1
    56   22   24 1
    57   22   25 1
    58   22   59 1
    59   22   60 1
    60   23   26 1
    61   23   32 1
    62   23   61 1
    63   23   62 1
    64   24   30 1
    65   24   63 1
    66   25   64 1
    67   26   65 1
    68   30   66 1
