@<TRIPOS>MOLECULE
*****
   46    48     0     0     0
SMALL
NO_CHARGES

@<TRIPOS>ATOM
      1 C1         -2.3805    1.5602   -1.6355 C.ar      1 <0>         0.0000
      2 C2         -3.5962    2.2260   -1.7630 C.ar      1 <0>         0.0000
      3 C3         -7.7186    3.6216    2.4619 C.2       1 <0>         0.0000
      4 C4         -2.0082    0.9914   -0.4102 C.ar      1 <0>         0.0000
      5 C5         -4.0255    1.9100    0.6175 C.ar      1 <0>         0.0000
      6 C6         -4.4047    2.4055   -0.6426 C.ar      1 <0>         0.0000
      7 C7         -2.8450    1.1476    0.7108 C.ar      1 <0>         0.0000
      8 C8          1.6569    0.7166   -0.0611 C.2       1 <0>         0.0000
      9 C9          0.7611    0.0053   -2.3785 C.2       1 <0>         0.0000
     10 C10        -0.7537    0.1651   -0.3654 C.2       1 <0>         0.0000
     11 C11         2.4562   -0.5703    0.0558 C.3       1 <0>         0.0000
     12 C12         1.8697   -1.0264   -2.3689 C.3       1 <0>         0.0000
     13 C13         2.1045   -1.6433   -0.9841 C.3       1 <0>         0.0000
     14 C14         0.4887    0.7613   -1.0600 C.3       1 <0>         0.0000
     15 C15        -5.8751    4.8107   -0.1577 C.3       1 <0>         0.0000
     16 C16        -5.5584    3.0896    3.7296 C.3       1 <0>         0.0000
     17 C17        -4.3920    2.9378    2.7665 C.3       1 <0>         0.0000
     18 N1         -8.3487    4.7438    2.1603 N.2       1 <0>         0.0000
     19 N2         -7.6126    5.7470    2.7177 N.2       1 <0>         0.0000
     20 N3         -6.5749    5.2752    3.3370 N.2       1 <0>         0.0000
     21 N4         -6.6255    3.9236    3.1940 N.pl3     1 <0>         0.0000
     22 O1          1.9179    1.7089    0.5939 O.2       1 <0>         0.0000
     23 O2          0.1106    0.2734   -3.3730 O.2       1 <0>         0.0000
     24 O3         -0.7063   -0.9184    0.1885 O.2       1 <0>         0.0000
     25 O4         -6.1259    3.3977   -2.3742 O.2       1 <0>         0.0000
     26 O5         -7.0499    2.4036   -0.2171 O.2       1 <0>         0.0000
     27 O6         -4.8575    2.1035    1.6871 O.3       1 <0>         0.0000
     28 S1         -6.0284    3.1864   -0.9227 S.o2      1 <0>         0.0000
     29 Cl1        -2.4516    0.3965    2.2380 Cl        1 <0>         0.0000
     30 H1         -1.7388    1.4297   -2.5023 H         1 <0>         0.0000
     31 H2         -3.9325    2.6064   -2.7219 H         1 <0>         0.0000
     32 H3         -7.9875    2.6266    2.1407 H         1 <0>         0.0000
     33 H4          3.5094   -0.2752   -0.0174 H         1 <0>         0.0000
     34 H5          2.3140   -0.9456    1.0747 H         1 <0>         0.0000
     35 H6          1.6386   -1.7751   -3.1308 H         1 <0>         0.0000
     36 H7          2.7757   -0.5013   -2.7076 H         1 <0>         0.0000
     37 H8          1.2096   -2.1833   -0.6688 H         1 <0>         0.0000
     38 H9          2.9174   -2.3726   -1.0451 H         1 <0>         0.0000
     39 H10         0.3016    1.8076   -1.3023 H         1 <0>         0.0000
     40 H11        -6.8611    5.2747   -0.2217 H         1 <0>         0.0000
     41 H12        -5.5828    4.7060    0.8842 H         1 <0>         0.0000
     42 H13        -5.1369    5.3810   -0.7228 H         1 <0>         0.0000
     43 H14        -5.2123    3.5598    4.6519 H         1 <0>         0.0000
     44 H15        -5.9698    2.1064    3.9668 H         1 <0>         0.0000
     45 H16        -4.0715    3.9119    2.3807 H         1 <0>         0.0000
     46 H17        -3.5537    2.4708    3.2879 H         1 <0>         0.0000
@<TRIPOS>BOND
     1    1    2 ar
     2    1    4 ar
     3    1   30 1
     4    2    6 ar
     5    2   31 1
     6    3   18 2
     7    3   21 1
     8    3   32 1
     9    4    7 ar
    10    4   10 1
    11    5    6 ar
    12    5    7 ar
    13    5   27 1
    14    6   28 1
    15    7   29 1
    16    8   11 1
    17    8   14 1
    18    8   22 2
    19    9   12 1
    20    9   14 1
    21    9   23 2
    22   10   14 1
    23   10   24 2
    24   11   13 1
    25   11   33 1
    26   11   34 1
    27   12   13 1
    28   12   35 1
    29   12   36 1
    30   13   37 1
    31   13   38 1
    32   14   39 1
    33   15   28 1
    34   15   40 1
    35   15   41 1
    36   15   42 1
    37   16   17 1
    38   16   21 1
    39   16   43 1
    40   16   44 1
    41   17   27 1
    42   17   45 1
    43   17   46 1
    44   18   19 1
    45   19   20 2
    46   20   21 1
    47   25   28 2
    48   26   28 2
