@<TRIPOS>MOLECULE
*****
   23    24     0     0     0
SMALL
NO_CHARGES

@<TRIPOS>ATOM
      1 C1          2.3451   -0.6858   -0.1840 C.ar      1 <0>         0.0000
      2 C2          0.9900   -0.7433    0.1614 C.ar      1 <0>         0.0000
      3 C3          0.6189   -4.0241    6.2695 C.ar      1 <0>         0.0000
      4 C4          1.7416   -4.8345    6.0335 C.ar      1 <0>         0.0000
      5 C5          3.3242   -0.9672    0.7681 C.ar      1 <0>         0.0000
      6 C6          0.6335   -1.0671    1.4713 C.ar      1 <0>         0.0000
      7 C7          0.4129   -2.8968    5.4859 C.ar      1 <0>         0.0000
      8 C8          2.6161   -4.4584    5.0219 C.ar      1 <0>         0.0000
      9 C9          2.9811   -1.2970    2.0884 C.ar      1 <0>         0.0000
     10 C10         1.6145   -1.3370    2.4267 C.ar      1 <0>         0.0000
     11 C11         1.3539   -2.6152    4.4797 C.ar      1 <0>         0.0000
     12 N1          2.4316   -3.3640    4.2575 N.ar      1 <0>         0.0000
     13 O1          3.9826   -1.5334    2.9796 O.3       1 <0>         0.0000
     14 O2          1.1376   -1.4963    3.7419 O.3       1 <0>         0.0000
     15 H1          2.6409   -0.4286   -1.1976 H         1 <0>         0.0000
     16 H2          0.2200   -0.5328   -0.5751 H         1 <0>         0.0000
     17 H3         -0.0899   -4.2779    7.0533 H         1 <0>         0.0000
     18 H4          1.9331   -5.7257    6.6221 H         1 <0>         0.0000
     19 H5          4.3808   -0.9373    0.5183 H         1 <0>         0.0000
     20 H6         -0.4071   -1.0961    1.7820 H         1 <0>         0.0000
     21 H7         -0.4410   -2.2412    5.6176 H         1 <0>         0.0000
     22 H8          3.5096   -5.0396    4.8050 H         1 <0>         0.0000
     23 H9          3.6566   -2.2517    3.5783 H         1 <0>         0.0000
@<TRIPOS>BOND
     1    1    2 ar
     2    1    5 ar
     3    1   15 1
     4    2    6 ar
     5    2   16 1
     6    3    4 ar
     7    3    7 ar
     8    3   17 1
     9    4    8 ar
    10    4   18 1
    11    5    9 ar
    12    5   19 1
    13    6   10 ar
    14    6   20 1
    15    7   11 ar
    16    7   21 1
    17    8   12 ar
    18    8   22 1
    19    9   10 ar
    20    9   13 1
    21   10   14 1
    22   11   12 ar
    23   11   14 1
    24   13   23 1
