@<TRIPOS>MOLECULE
*****
   56    59     0     0     0
SMALL
NO_CHARGES

@<TRIPOS>ATOM
      1 C1          1.2639    2.4781    2.0304 C.ar      1 <0>         0.0000
      2 C2          1.3091    1.9038    0.7383 C.ar      1 <0>         0.0000
      3 C3          0.6215    1.8606    3.1084 C.ar      1 <0>         0.0000
      4 C4          0.0942    0.0387    1.5771 C.ar      1 <0>         0.0000
      5 C5          0.7145    0.6662    0.4959 C.ar      1 <0>         0.0000
      6 C6         -0.5750   -1.2205    1.6038 C.2       1 <0>         0.0000
      7 C7          0.0279    0.6176    2.8619 C.ar      1 <0>         0.0000
      8 C8         -1.0475   -1.3955    2.8848 C.2       1 <0>         0.0000
      9 C9         -0.5154   -2.0652    0.3669 C.3       1 <0>         0.0000
     10 C10         0.3584    0.9944   -1.9915 C.3       1 <0>         0.0000
     11 C11        -0.0089   -1.0578   -3.3695 C.3       1 <0>         0.0000
     12 C12         0.6329   -0.0293   -0.8581 C.3       1 <0>         0.0000
     13 C13        -0.4155    0.3966   -3.1814 C.3       1 <0>         0.0000
     14 C14        -0.4748   -1.1110   -0.8451 C.3       1 <0>         0.0000
     15 C15         1.0166   -5.3574   -3.2500 C.3       1 <0>         0.0000
     16 C16        -2.8375   -4.5912    3.0647 C.3       1 <0>         0.0000
     17 C17        -0.4214    3.4798   -6.0010 C.3       1 <0>         0.0000
     18 C18        -1.7964   -2.5259    3.5200 C.3       1 <0>         0.0000
     19 C19        -0.1821    1.1630   -4.4899 C.3       1 <0>         0.0000
     20 C20         0.3281   -3.9977   -3.4305 C.3       1 <0>         0.0000
     21 C21         0.3999   -3.1921   -2.1336 C.3       1 <0>         0.0000
     22 N1         -0.6827   -0.2816    3.6464 N.pl3     1 <0>         0.0000
     23 N2         -0.4177   -1.9150   -2.1776 N.4       1 <0>         0.0000
     24 O1         -2.1356   -3.4740    2.5235 O.3       1 <0>         0.0000
     25 S1         -0.7433    2.8968   -4.3027 S.3       1 <0>         0.0000
     26 H1          1.7383    3.4423    2.1878 H         1 <0>         0.0000
     27 H2          1.8053    2.4517   -0.0580 H         1 <0>         0.0000
     28 H3          0.5924    2.3369    4.0844 H         1 <0>         0.0000
     29 H4          0.3964   -2.6709    0.4020 H         1 <0>         0.0000
     30 H5         -1.3676   -2.7468    0.3000 H         1 <0>         0.0000
     31 H6         -0.2050    1.8359   -1.5848 H         1 <0>         0.0000
     32 H7          1.3089    1.4029   -2.3479 H         1 <0>         0.0000
     33 H8         -0.4662   -1.5052   -4.2529 H         1 <0>         0.0000
     34 H9          1.0758   -1.1462   -3.4624 H         1 <0>         0.0000
     35 H10         1.5903   -0.5349   -1.0493 H         1 <0>         0.0000
     36 H11        -1.4932    0.4316   -2.9757 H         1 <0>         0.0000
     37 H12        -1.4402   -0.5996   -0.8875 H         1 <0>         0.0000
     38 H13         2.0709   -5.2360   -2.9812 H         1 <0>         0.0000
     39 H14         0.5328   -5.9507   -2.4678 H         1 <0>         0.0000
     40 H15         0.9742   -5.9301   -4.1795 H         1 <0>         0.0000
     41 H16        -3.0552   -5.2645    2.2338 H         1 <0>         0.0000
     42 H17        -3.7810   -4.2781    3.5322 H         1 <0>         0.0000
     43 H18        -2.2272   -5.1207    3.8090 H         1 <0>         0.0000
     44 H19        -0.7202    4.5296   -6.0356 H         1 <0>         0.0000
     45 H20        -1.0144    2.9204   -6.7292 H         1 <0>         0.0000
     46 H21         0.6412    3.4080   -6.2466 H         1 <0>         0.0000
     47 H22        -1.1781   -2.9978    4.3026 H         1 <0>         0.0000
     48 H23        -2.7071   -2.1467    4.0141 H         1 <0>         0.0000
     49 H24        -0.7426    0.6954   -5.3077 H         1 <0>         0.0000
     50 H25         0.8834    1.1482   -4.7507 H         1 <0>         0.0000
     51 H26        -0.7230   -4.1536   -3.7083 H         1 <0>         0.0000
     52 H27         0.8026   -3.4587   -4.2548 H         1 <0>         0.0000
     53 H28         0.0085   -3.7911   -1.3138 H         1 <0>         0.0000
     54 H29         1.4246   -2.9019   -1.8907 H         1 <0>         0.0000
     55 H30        -0.9273   -0.1430    4.6178 H         1 <0>         0.0000
     56 H31        -1.3836   -2.2088   -2.3479 H         1 <0>         0.0000
@<TRIPOS>BOND
     1    1    2 ar
     2    1    3 ar
     3    1   26 1
     4    2    5 ar
     5    2   27 1
     6    3    7 ar
     7    3   28 1
     8    4    5 ar
     9    4    6 1
    10    4    7 ar
    11    5   12 1
    12    6    8 2
    13    6    9 1
    14    7   22 1
    15    8   18 1
    16    8   22 1
    17    9   14 1
    18    9   29 1
    19    9   30 1
    20   10   12 1
    21   10   13 1
    22   10   31 1
    23   10   32 1
    24   11   13 1
    25   11   23 1
    26   11   33 1
    27   11   34 1
    28   12   14 1
    29   12   35 1
    30   13   19 1
    31   13   36 1
    32   14   23 1
    33   14   37 1
    34   15   20 1
    35   15   38 1
    36   15   39 1
    37   15   40 1
    38   16   24 1
    39   16   41 1
    40   16   42 1
    41   16   43 1
    42   17   25 1
    43   17   44 1
    44   17   45 1
    45   17   46 1
    46   18   24 1
    47   18   47 1
    48   18   48 1
    49   19   25 1
    50   19   49 1
    51   19   50 1
    52   20   21 1
    53   20   51 1
    54   20   52 1
    55   21   23 1
    56   21   53 1
    57   21   54 1
    58   22   55 1
    59   23   56 1
