@<TRIPOS>MOLECULE
*****
   20    21     0     0     0
SMALL
NO_CHARGES

@<TRIPOS>ATOM
      1 C1          1.9460   -0.8524   -0.0686 C.ar      1 <0>         0.0000
      2 C2          0.9709   -0.1948    0.6792 C.ar      1 <0>         0.0000
      3 C3          2.8632   -1.7028    0.5573 C.ar      1 <0>         0.0000
      4 C4         -0.8010    3.6264    1.6769 C.2       1 <0>         0.0000
      5 C5         -1.8619    3.7175    2.5492 C.2       1 <0>         0.0000
      6 C6          0.8724   -0.3911    2.0684 C.ar      1 <0>         0.0000
      7 C7          2.7798   -1.8868    1.9314 C.ar      1 <0>         0.0000
      8 C8          1.7928   -1.2513    2.6847 C.ar      1 <0>         0.0000
      9 C9         -0.6761    1.6015    2.5531 C.2       1 <0>         0.0000
     10 C10        -0.2244    0.2212    2.8800 C.2       1 <0>         0.0000
     11 N1         -0.1389    2.4291    1.6872 N.2       1 <0>         0.0000
     12 O1         -0.7640   -0.3784    3.8035 O.2       1 <0>         0.0000
     13 F1          3.6608   -2.6909    2.5623 F         1 <0>         0.0000
     14 F2          1.7801   -1.4577    4.0092 F         1 <0>         0.0000
     15 S1         -2.0497    2.2506    3.4303 S.3       1 <0>         0.0000
     16 H1          2.0002   -0.7001   -1.1421 H         1 <0>         0.0000
     17 H2          0.2732    0.4738    0.1911 H         1 <0>         0.0000
     18 H3          3.6407   -2.2195    0.0026 H         1 <0>         0.0000
     19 H4         -0.4701    4.4166    1.0116 H         1 <0>         0.0000
     20 H5         -2.5202    4.5619    2.7095 H         1 <0>         0.0000
@<TRIPOS>BOND
     1    1    2 ar
     2    1    3 ar
     3    1   16 1
     4    2    6 ar
     5    2   17 1
     6    3    7 ar
     7    3   18 1
     8    4    5 2
     9    4   11 1
    10    4   19 1
    11    5   15 1
    12    5   20 1
    13    6    8 ar
    14    6   10 1
    15    7    8 ar
    16    7   13 1
    17    8   14 1
    18    9   10 1
    19    9   11 2
    20    9   15 1
    21   10   12 2
