@<TRIPOS>MOLECULE
*****
   22    23     0     0     0
SMALL
NO_CHARGES

@<TRIPOS>ATOM
      1 C1         -0.0724   -3.3320    0.5504 C.ar      1 <0>         0.0000
      2 C2          3.4416   -3.0123   -0.7303 C.ar      1 <0>         0.0000
      3 C3         -0.4994   -2.0262    0.4945 C.ar      1 <0>         0.0000
      4 C4          3.8766   -4.3145   -0.6778 C.ar      1 <0>         0.0000
      5 C5          1.6600   -1.3207   -0.3726 C.ar      1 <0>         0.0000
      6 C6          1.7135   -5.0280    0.1918 C.ar      1 <0>         0.0000
      7 C7          2.1231   -2.6575   -0.3244 C.ar      1 <0>         0.0000
      8 C8          1.2456   -3.6890    0.1450 C.ar      1 <0>         0.0000
      9 C9          0.3724   -1.0027    0.0283 C.ar      1 <0>         0.0000
     10 C10         3.0006   -5.3320   -0.2110 C.ar      1 <0>         0.0000
     11 C11        -0.1428    0.3858   -0.0097 C.2       1 <0>         0.0000
     12 O1         -1.2643    0.7262    0.3293 O.2       1 <0>         0.0000
     13 O2          3.5153   -6.6017   -0.1915 O.3       1 <0>         0.0000
     14 O3          0.7688    1.2905   -0.4713 O.3       1 <0>         0.0000
     15 H1         -0.7429   -4.1100    0.9075 H         1 <0>         0.0000
     16 H2          4.1100   -2.2325   -1.0870 H         1 <0>         0.0000
     17 H3         -1.5023   -1.7478    0.8019 H         1 <0>         0.0000
     18 H4          4.8794   -4.5960   -0.9846 H         1 <0>         0.0000
     19 H5          2.3243   -0.5390   -0.7281 H         1 <0>         0.0000
     20 H6          1.0469   -5.8120    0.5486 H         1 <0>         0.0000
     21 H7          2.8406   -7.2154    0.1412 H         1 <0>         0.0000
     22 H8          0.3157    2.1544   -0.4486 H         1 <0>         0.0000
@<TRIPOS>BOND
     1    1    3 ar
     2    1    8 ar
     3    1   15 1
     4    2    4 ar
     5    2    7 ar
     6    2   16 1
     7    3    9 ar
     8    3   17 1
     9    4   10 ar
    10    4   18 1
    11    5    7 ar
    12    5    9 ar
    13    5   19 1
    14    6    8 ar
    15    6   10 ar
    16    6   20 1
    17    7    8 ar
    18    9   11 1
    19   10   13 1
    20   11   12 2
    21   11   14 1
    22   13   21 1
    23   14   22 1
