@<TRIPOS>MOLECULE
*****
   25    26     0     0     0
SMALL
NO_CHARGES

@<TRIPOS>ATOM
      1 C1         -3.3200    1.0799   -3.8681 C.ar      1 <0>         0.0000
      2 C2         -4.5765    0.7296   -4.3796 C.ar      1 <0>         0.0000
      3 C3         -4.0650   -1.6168   -4.0347 C.ar      1 <0>         0.0000
      4 C4         -2.4242    0.0965   -3.4348 C.ar      1 <0>         0.0000
      5 C5         -2.8290   -1.2466   -3.5328 C.ar      1 <0>         0.0000
      6 C6         -4.9405   -0.6109   -4.4594 C.ar      1 <0>         0.0000
      7 C7          1.4926   -0.0883   -0.8992 C.3       1 <0>         0.0000
      8 C8          1.6925   -0.4192   -2.3787 C.3       1 <0>         0.0000
      9 C9          0.6835    1.6299   -2.2264 C.3       1 <0>         0.0000
     10 C10        -0.7217    1.6574   -2.8222 C.3       1 <0>         0.0000
     11 O1          0.6480    1.0725   -0.9196 O.3       1 <0>         0.0000
     12 O2          1.5916    0.8722   -3.0026 O.3       1 <0>         0.0000
     13 O3         -1.1857    0.3144   -2.9219 O.3       1 <0>         0.0000
     14 F1         -1.9698   -2.2073   -3.1196 F         1 <0>         0.0000
     15 Cl1        -6.5127   -1.0582   -5.0991 Cl        1 <0>         0.0000
     16 H1         -3.0510    2.1283   -3.8121 H         1 <0>         0.0000
     17 H2         -5.2621    1.5019   -4.7119 H         1 <0>         0.0000
     18 H3         -4.3303   -2.6672   -4.0895 H         1 <0>         0.0000
     19 H4          0.9810   -0.8800   -0.3464 H         1 <0>         0.0000
     20 H5          2.4400    0.1573   -0.4038 H         1 <0>         0.0000
     21 H6          2.6816   -0.8222   -2.6062 H         1 <0>         0.0000
     22 H7          0.9128   -1.0869   -2.7566 H         1 <0>         0.0000
     23 H8          1.0621    2.6607   -2.1852 H         1 <0>         0.0000
     24 H9         -0.6815    2.1242   -3.8146 H         1 <0>         0.0000
     25 H10        -1.3760    2.2463   -2.1665 H         1 <0>         0.0000
@<TRIPOS>BOND
     1    1    2 ar
     2    1    4 ar
     3    1   16 1
     4    2    6 ar
     5    2   17 1
     6    3    5 ar
     7    3    6 ar
     8    3   18 1
     9    4    5 ar
    10    4   13 1
    11    5   14 1
    12    6   15 1
    13    7    8 1
    14    7   11 1
    15    7   19 1
    16    7   20 1
    17    8   12 1
    18    8   21 1
    19    8   22 1
    20    9   10 1
    21    9   12 1
    22    9   11 1
    23    9   23 1
    24   10   13 1
    25   10   24 1
    26   10   25 1
