@<TRIPOS>MOLECULE
*****
   44    46     0     0     0
SMALL
NO_CHARGES

@<TRIPOS>ATOM
      1 C1         -1.4954    2.3818   -4.5713 C.ar      1 <0>         0.0000
      2 C2         -2.7318    2.6630   -5.1611 C.ar      1 <0>         0.0000
      3 C3         -1.4446    1.4614   -3.5256 C.ar      1 <0>         0.0000
      4 C4         -3.8606    2.0048   -4.6679 C.ar      1 <0>         0.0000
      5 C5         -2.6348    0.8531   -3.1001 C.ar      1 <0>         0.0000
      6 C6         -0.9371    1.6224    0.8496 C.3       1 <0>         0.0000
      7 C7         -0.5149    0.4189    1.7008 C.3       1 <0>         0.0000
      8 C8          0.1102   -2.0511    1.7012 C.3       1 <0>         0.0000
      9 C9         -2.0463    1.2414   -0.1300 C.3       1 <0>         0.0000
     10 C10         1.5798   -1.8832    2.1245 C.3       1 <0>         0.0000
     11 C11        -1.3657   -1.0716   -0.1248 C.3       1 <0>         0.0000
     12 C12         1.1290   -0.6414    0.0716 C.3       1 <0>         0.0000
     13 C13        -0.1972   -0.8152    0.8315 C.3       1 <0>         0.0000
     14 C14         4.6693   -0.4179    1.9031 C.3       1 <0>         0.0000
     15 C15        -2.6272   -0.1870   -1.9957 C.3       1 <0>         0.0000
     16 N1         -3.8255    1.1220   -3.6585 N.ar      1 <0>         0.0000
     17 N2         -1.6407    0.0989   -0.9566 N.3       1 <0>         0.0000
     18 N3          2.1399   -0.9378    1.1201 N.pl3     1 <0>         0.0000
     19 O1          3.8755   -0.4177   -0.6382 O.2       1 <0>         0.0000
     20 O2          4.0491   -2.6326    0.6089 O.2       1 <0>         0.0000
     21 S1          3.7140   -1.2004    0.5917 S.o2      1 <0>         0.0000
     22 H1         -0.5892    2.8698   -4.9219 H         1 <0>         0.0000
     23 H2         -2.8233    3.3733   -5.9780 H         1 <0>         0.0000
     24 H3         -0.5137    1.2099   -3.0273 H         1 <0>         0.0000
     25 H4         -4.8426    2.1978   -5.0980 H         1 <0>         0.0000
     26 H5         -1.2851    2.4356    1.4964 H         1 <0>         0.0000
     27 H6         -0.0814    2.0086    0.2853 H         1 <0>         0.0000
     28 H7          0.3473    0.6758    2.3255 H         1 <0>         0.0000
     29 H8         -1.3364    0.1561    2.3805 H         1 <0>         0.0000
     30 H9          0.0016   -2.9595    1.0982 H         1 <0>         0.0000
     31 H10        -0.5597   -2.1380    2.5612 H         1 <0>         0.0000
     32 H11        -2.9746    1.0056    0.4283 H         1 <0>         0.0000
     33 H12        -2.2739    2.0849   -0.7879 H         1 <0>         0.0000
     34 H13         1.6687   -1.4390    3.1216 H         1 <0>         0.0000
     35 H14         2.1189   -2.8339    2.1166 H         1 <0>         0.0000
     36 H15        -1.1217   -1.9145   -0.7808 H         1 <0>         0.0000
     37 H16        -2.2555   -1.3680    0.4673 H         1 <0>         0.0000
     38 H17         1.1830   -1.3513   -0.7630 H         1 <0>         0.0000
     39 H18         1.2889    0.3583   -0.3259 H         1 <0>         0.0000
     40 H19         5.7225   -0.5775    1.6649 H         1 <0>         0.0000
     41 H20         4.4260    0.6443    1.9173 H         1 <0>         0.0000
     42 H21         4.4215   -0.8950    2.8526 H         1 <0>         0.0000
     43 H22        -3.6533   -0.2755   -1.6011 H         1 <0>         0.0000
     44 H23        -2.3756   -1.1565   -2.4435 H         1 <0>         0.0000
@<TRIPOS>BOND
     1    1    2 ar
     2    1    3 ar
     3    1   22 1
     4    2    4 ar
     5    2   23 1
     6    3    5 ar
     7    3   24 1
     8    4   16 ar
     9    4   25 1
    10    5   15 1
    11    5   16 ar
    12    6    7 1
    13    6    9 1
    14    6   26 1
    15    6   27 1
    16    7   13 1
    17    7   28 1
    18    7   29 1
    19    8   10 1
    20    8   13 1
    21    8   30 1
    22    8   31 1
    23    9   17 1
    24    9   32 1
    25    9   33 1
    26   10   18 1
    27   10   34 1
    28   10   35 1
    29   11   13 1
    30   11   17 1
    31   11   36 1
    32   11   37 1
    33   12   13 1
    34   12   18 1
    35   12   38 1
    36   12   39 1
    37   14   21 1
    38   14   40 1
    39   14   41 1
    40   14   42 1
    41   15   17 1
    42   15   43 1
    43   15   44 1
    44   18   21 1
    45   19   21 2
    46   20   21 2
