@<TRIPOS>MOLECULE
*****
   20    20     0     0     0
SMALL
NO_CHARGES

@<TRIPOS>ATOM
      1 C1          1.8995   -1.0544   -0.1165 C.ar      1 <0>         0.0000
      2 C2          0.8149   -0.4877    0.5597 C.ar      1 <0>         0.0000
      3 C3          2.9581   -1.6346    0.5869 C.ar      1 <0>         0.0000
      4 C4          0.7519   -0.5013    1.9620 C.ar      1 <0>         0.0000
      5 C5          2.9112   -1.6527    1.9820 C.ar      1 <0>         0.0000
      6 C6          1.8065   -1.1052    2.6566 C.ar      1 <0>         0.0000
      7 C7         -0.4096    0.1193    2.7014 C.3       1 <0>         0.0000
      8 C8          1.0641   -2.2082    4.6219 C.3       1 <0>         0.0000
      9 O1          3.9430   -2.2008    2.6952 O.3       1 <0>         0.0000
     10 O2          1.8539   -1.1514    4.0500 O.3       1 <0>         0.0000
     11 H1          1.9294   -1.0320   -1.2027 H         1 <0>         0.0000
     12 H2          0.0101   -0.0201   -0.0022 H         1 <0>         0.0000
     13 H3          3.8174   -2.0624    0.0791 H         1 <0>         0.0000
     14 H4         -1.2083   -0.6114    2.8786 H         1 <0>         0.0000
     15 H5         -0.0961    0.5100    3.6731 H         1 <0>         0.0000
     16 H6         -0.8425    0.9387    2.1210 H         1 <0>         0.0000
     17 H7          1.2550   -2.1904    5.6971 H         1 <0>         0.0000
     18 H8          1.3554   -3.1809    4.2079 H         1 <0>         0.0000
     19 H9         -0.0029   -2.0444    4.4389 H         1 <0>         0.0000
     20 H10         3.7648   -1.9957    3.6321 H         1 <0>         0.0000
@<TRIPOS>BOND
     1    1    2 ar
     2    1    3 ar
     3    1   11 1
     4    2    4 ar
     5    2   12 1
     6    3    5 ar
     7    3   13 1
     8    4    6 ar
     9    4    7 1
    10    5    6 ar
    11    5    9 1
    12    6   10 1
    13    7   14 1
    14    7   15 1
    15    7   16 1
    16    8   10 1
    17    8   17 1
    18    8   18 1
    19    8   19 1
    20    9   20 1
