@<TRIPOS>MOLECULE
*****
   34    36     0     0     0
SMALL
NO_CHARGES

@<TRIPOS>ATOM
      1 C1         -1.8870   -4.1022   -3.3426 C.ar      1 <0>         0.0000
      2 C2         -1.8263   -2.7106   -3.2165 C.ar      1 <0>         0.0000
      3 C3         -1.0245   -4.9001   -2.5842 C.ar      1 <0>         0.0000
      4 C4         -1.0699    2.5453    0.7078 C.ar      1 <0>         0.0000
      5 C5         -0.9132   -2.1192   -2.3389 C.ar      1 <0>         0.0000
      6 C6         -0.1148   -4.3058   -1.7050 C.ar      1 <0>         0.0000
      7 C7         -1.3351    1.2133    1.0139 C.ar      1 <0>         0.0000
      8 C8          0.0248    2.8527   -0.1049 C.ar      1 <0>         0.0000
      9 C9         -0.0498   -2.9110   -1.5692 C.ar      1 <0>         0.0000
     10 C10        -0.5402    0.1689    0.5172 C.ar      1 <0>         0.0000
     11 C11         0.8412    1.8455   -0.6226 C.ar      1 <0>         0.0000
     12 C12         0.5458    0.4952   -0.3168 C.ar      1 <0>         0.0000
     13 C13        -0.8999   -1.2531    0.8969 C.3       1 <0>         0.0000
     14 C14         0.2742   -2.2284    0.8570 C.3       1 <0>         0.0000
     15 C15         0.9063   -2.3315   -0.5411 C.3       1 <0>         0.0000
     16 C16         2.0353    2.2186   -1.4784 C.3       1 <0>         0.0000
     17 O1          3.2926    2.0845   -0.8008 O.3       1 <0>         0.0000
     18 S1          1.6462   -0.7231   -1.0315 S.3       1 <0>         0.0000
     19 H1         -2.5934   -4.5597   -4.0303 H         1 <0>         0.0000
     20 H2         -2.4877   -2.0817   -3.8071 H         1 <0>         0.0000
     21 H3         -1.0548   -5.9824   -2.6811 H         1 <0>         0.0000
     22 H4         -1.6998    3.3363    1.1054 H         1 <0>         0.0000
     23 H5         -0.8646   -1.0370   -2.2647 H         1 <0>         0.0000
     24 H6          0.5550   -4.9334   -1.1199 H         1 <0>         0.0000
     25 H7         -2.1754    0.9635    1.6588 H         1 <0>         0.0000
     26 H8          0.2556    3.8893   -0.3391 H         1 <0>         0.0000
     27 H9         -1.3258   -1.2487    1.9054 H         1 <0>         0.0000
     28 H10        -1.6925   -1.6193    0.2329 H         1 <0>         0.0000
     29 H11         1.0453   -1.9232    1.5725 H         1 <0>         0.0000
     30 H12        -0.0732   -3.2261    1.1473 H         1 <0>         0.0000
     31 H13         1.7792   -2.9876   -0.4736 H         1 <0>         0.0000
     32 H14         2.0373    1.6328   -2.4083 H         1 <0>         0.0000
     33 H15         1.9699    3.2735   -1.7521 H         1 <0>         0.0000
     34 H16         3.4287    1.1430   -0.6016 H         1 <0>         0.0000
@<TRIPOS>BOND
     1    1    3 ar
     2    1    2 ar
     3    1   19 1
     4    2    5 ar
     5    2   20 1
     6    3    6 ar
     7    3   21 1
     8    4    7 ar
     9    4    8 ar
    10    4   22 1
    11    5    9 ar
    12    5   23 1
    13    6    9 ar
    14    6   24 1
    15    7   10 ar
    16    7   25 1
    17    8   11 ar
    18    8   26 1
    19    9   15 1
    20   10   12 ar
    21   10   13 1
    22   11   12 ar
    23   11   16 1
    24   12   18 1
    25   13   14 1
    26   13   27 1
    27   13   28 1
    28   14   15 1
    29   14   29 1
    30   14   30 1
    31   15   18 1
    32   15   31 1
    33   16   17 1
    34   16   32 1
    35   16   33 1
    36   17   34 1
