@<TRIPOS>MOLECULE
*****
   37    38     0     0     0
SMALL
NO_CHARGES

@<TRIPOS>ATOM
      1 C1          1.8805   -0.2507    4.4858 C.ar      1 <0>         0.0000
      2 C2          0.8966   -2.1256    5.6532 C.ar      1 <0>         0.0000
      3 C3          2.1777   -1.0798    3.4046 C.ar      1 <0>         0.0000
      4 C4          1.1974   -2.9514    4.5728 C.ar      1 <0>         0.0000
      5 C5          1.2323   -0.7621    5.6234 C.ar      1 <0>         0.0000
      6 C6          1.8335   -2.4391    3.4325 C.ar      1 <0>         0.0000
      7 C7          0.8880    0.0888    6.8069 C.2       1 <0>         0.0000
      8 C8         -0.3899   -5.5533    0.4589 C.3       1 <0>         0.0000
      9 C9         -0.7262   -4.6860    1.6806 C.3       1 <0>         0.0000
     10 C10         1.0881   -5.4190    0.0639 C.3       1 <0>         0.0000
     11 C11        -0.3216   -3.2206    1.4555 C.3       1 <0>         0.0000
     12 C12         1.4838   -3.9505   -0.1530 C.3       1 <0>         0.0000
     13 C13         1.1599   -3.0584    1.0626 C.3       1 <0>         0.0000
     14 C14         1.2640    1.5604    6.7819 C.3       1 <0>         0.0000
     15 C15         2.1255   -3.3249    2.2374 C.3       1 <0>         0.0000
     16 O1          0.3126   -0.3902    7.7785 O.2       1 <0>         0.0000
     17 O2          3.4518   -3.0928    1.7325 O.3       1 <0>         0.0000
     18 H1          2.1569    0.7982    4.4370 H         1 <0>         0.0000
     19 H2          0.4017   -2.5154    6.5374 H         1 <0>         0.0000
     20 H3          2.6850   -0.6806    2.5309 H         1 <0>         0.0000
     21 H4          0.9322   -4.0059    4.6102 H         1 <0>         0.0000
     22 H5         -1.0162   -5.2358   -0.3865 H         1 <0>         0.0000
     23 H6         -0.6393   -6.6027    0.6567 H         1 <0>         0.0000
     24 H7         -1.7985   -4.7414    1.9017 H         1 <0>         0.0000
     25 H8         -0.2121   -5.0872    2.5640 H         1 <0>         0.0000
     26 H9          1.7179   -5.8644    0.8452 H         1 <0>         0.0000
     27 H10         1.2878   -5.9915   -0.8495 H         1 <0>         0.0000
     28 H11        -0.9284   -2.8146    0.6356 H         1 <0>         0.0000
     29 H12        -0.5559   -2.6191    2.3394 H         1 <0>         0.0000
     30 H13         2.5458   -3.8706   -0.3985 H         1 <0>         0.0000
     31 H14         0.9253   -3.5593   -1.0142 H         1 <0>         0.0000
     32 H15         1.3282   -2.0124    0.7759 H         1 <0>         0.0000
     33 H16         0.7834    2.0725    5.9413 H         1 <0>         0.0000
     34 H17         2.3460    1.6862    6.6664 H         1 <0>         0.0000
     35 H18         0.9441    2.0223    7.7165 H         1 <0>         0.0000
     36 H19         2.0379   -4.3720    2.5556 H         1 <0>         0.0000
     37 H20         4.0729   -3.2185    2.4674 H         1 <0>         0.0000
@<TRIPOS>BOND
     1    1    3 ar
     2    1    5 ar
     3    1   18 1
     4    2    4 ar
     5    2    5 ar
     6    2   19 1
     7    3    6 ar
     8    3   20 1
     9    4    6 ar
    10    4   21 1
    11    5    7 1
    12    6   15 1
    13    7   14 1
    14    7   16 2
    15    8   10 1
    16    8    9 1
    17    8   22 1
    18    8   23 1
    19    9   11 1
    20    9   24 1
    21    9   25 1
    22   10   12 1
    23   10   26 1
    24   10   27 1
    25   11   13 1
    26   11   28 1
    27   11   29 1
    28   12   13 1
    29   12   30 1
    30   12   31 1
    31   13   15 1
    32   13   32 1
    33   14   33 1
    34   14   34 1
    35   14   35 1
    36   15   17 1
    37   15   36 1
    38   17   37 1
