@<TRIPOS>MOLECULE
*****
   37    38     0     0     0
SMALL
NO_CHARGES

@<TRIPOS>ATOM
      1 C1          0.7591   -1.6308    5.5669 C.ar      1 <0>         0.0000
      2 C2          2.5996   -0.3468    4.6681 C.ar      1 <0>         0.0000
      3 C3          0.9396   -2.5826    4.5634 C.ar      1 <0>         0.0000
      4 C4          2.7742   -1.2971    3.6653 C.ar      1 <0>         0.0000
      5 C5          1.5888   -0.4988    5.6320 C.ar      1 <0>         0.0000
      6 C6          1.9434   -2.4265    3.5981 C.ar      1 <0>         0.0000
      7 C7          1.4400    0.5501    6.6903 C.2       1 <0>         0.0000
      8 C8          2.2688   -2.9223   -1.4185 C.3       1 <0>         0.0000
      9 C9          2.2238   -4.2929   -0.7285 C.3       1 <0>         0.0000
     10 C10         2.3791   -1.7854   -0.3930 C.3       1 <0>         0.0000
     11 C11         1.0879   -4.3618    0.3047 C.3       1 <0>         0.0000
     12 C12         1.2328   -1.8468    0.6282 C.3       1 <0>         0.0000
     13 C13         1.0973   -3.2115    1.3351 C.3       1 <0>         0.0000
     14 C14         0.3380    0.3926    7.7242 C.3       1 <0>         0.0000
     15 C15         2.0967   -3.4547    2.4899 C.3       1 <0>         0.0000
     16 O1          2.1909    1.5194    6.7238 O.2       1 <0>         0.0000
     17 O2          3.4358   -3.4915    1.9796 O.3       1 <0>         0.0000
     18 H1         -0.0266   -1.7806    6.3011 H         1 <0>         0.0000
     19 H2          3.2364    0.5308    4.7243 H         1 <0>         0.0000
     20 H3          0.2945   -3.4585    4.5307 H         1 <0>         0.0000
     21 H4          3.5524   -1.1699    2.9187 H         1 <0>         0.0000
     22 H5          1.3538   -2.7843   -2.0131 H         1 <0>         0.0000
     23 H6          3.1086   -2.8816   -2.1223 H         1 <0>         0.0000
     24 H7          2.0822   -5.0853   -1.4739 H         1 <0>         0.0000
     25 H8          3.1801   -4.4799   -0.2322 H         1 <0>         0.0000
     26 H9          3.3395   -1.8576    0.1264 H         1 <0>         0.0000
     27 H10         2.3575   -0.8145   -0.9031 H         1 <0>         0.0000
     28 H11         0.1288   -4.3181   -0.2296 H         1 <0>         0.0000
     29 H12         1.1072   -5.3275    0.8260 H         1 <0>         0.0000
     30 H13         1.3321   -1.0447    1.3664 H         1 <0>         0.0000
     31 H14         0.2882   -1.6593    0.0996 H         1 <0>         0.0000
     32 H15         0.1204   -3.2189    1.8365 H         1 <0>         0.0000
     33 H16         0.4655   -0.5345    8.2936 H         1 <0>         0.0000
     34 H17        -0.6458    0.3498    7.2445 H         1 <0>         0.0000
     35 H18         0.3705    1.2424    8.4070 H         1 <0>         0.0000
     36 H19         1.8474   -4.4415    2.9109 H         1 <0>         0.0000
     37 H20         4.0278   -3.7034    2.7191 H         1 <0>         0.0000
@<TRIPOS>BOND
     1    1    3 ar
     2    1    5 ar
     3    1   18 1
     4    2    4 ar
     5    2    5 ar
     6    2   19 1
     7    3    6 ar
     8    3   20 1
     9    4    6 ar
    10    4   21 1
    11    5    7 1
    12    6   15 1
    13    7   14 1
    14    7   16 2
    15    8   10 1
    16    8    9 1
    17    8   22 1
    18    8   23 1
    19    9   11 1
    20    9   24 1
    21    9   25 1
    22   10   12 1
    23   10   26 1
    24   10   27 1
    25   11   13 1
    26   11   28 1
    27   11   29 1
    28   12   13 1
    29   12   30 1
    30   12   31 1
    31   13   15 1
    32   13   32 1
    33   14   33 1
    34   14   34 1
    35   14   35 1
    36   15   17 1
    37   15   36 1
    38   17   37 1
