@<TRIPOS>MOLECULE
*****
   52    53     0     0     0
SMALL
NO_CHARGES

@<TRIPOS>ATOM
      1 C1         -3.4234   -0.2304    1.7130 C.ar      1 <0>         0.0000
      2 C2         -3.6706    0.7418    0.7256 C.ar      1 <0>         0.0000
      3 C3         -2.2323   -0.9413    1.6864 C.ar      1 <0>         0.0000
      4 C4         -2.7312    1.0106   -0.2649 C.ar      1 <0>         0.0000
      5 C5         -1.2707   -0.6948    0.6865 C.ar      1 <0>         0.0000
      6 C6         -1.5245    0.2987   -0.2802 C.ar      1 <0>         0.0000
      7 C7         -0.0546   -1.5225    0.5972 C.2       1 <0>         0.0000
      8 C8          0.7338    0.1886   -1.0142 C.3       1 <0>         0.0000
      9 C9          0.7964   -1.3199   -0.6682 C.3       1 <0>         0.0000
     10 C10         2.4105    2.6018   -3.5928 C.3       1 <0>         0.0000
     11 C11        -0.8927   -6.1860   -2.3730 C.3       1 <0>         0.0000
     12 C12         5.4415   -0.7347    2.0796 C.3       1 <0>         0.0000
     13 C13         1.5511    0.6397   -2.2189 C.3       1 <0>         0.0000
     14 C14         0.1515   -2.1506   -1.8145 C.3       1 <0>         0.0000
     15 C15         2.2393   -1.8021   -0.4271 C.3       1 <0>         0.0000
     16 C16         1.5685    2.1641   -2.3901 C.3       1 <0>         0.0000
     17 C17         0.0270   -3.6427   -1.5022 C.3       1 <0>         0.0000
     18 C18         3.0039   -1.0105    0.6356 C.3       1 <0>         0.0000
     19 O1          0.2382   -2.3674    1.4403 O.2       1 <0>         0.0000
     20 O2         -2.2374   -3.9467   -2.8890 O.2       1 <0>         0.0000
     21 O3         -0.0127   -4.3416   -4.0813 O.2       1 <0>         0.0000
     22 O4          4.7291   -3.0373    0.9504 O.2       1 <0>         0.0000
     23 O5          5.3799   -1.0808   -0.5604 O.2       1 <0>         0.0000
     24 O6         -0.6317    0.5977   -1.2614 O.3       1 <0>         0.0000
     25 S1         -0.8526   -4.4501   -2.8754 S.o2      1 <0>         0.0000
     26 S2          4.7275   -1.5942    0.6586 S.o2      1 <0>         0.0000
     27 H1         -4.1647   -0.4273    2.4817 H         1 <0>         0.0000
     28 H2         -4.6047    1.2974    0.7367 H         1 <0>         0.0000
     29 H3         -2.0160   -1.7135    2.4187 H         1 <0>         0.0000
     30 H4         -2.9049    1.7656   -1.0256 H         1 <0>         0.0000
     31 H5          1.0626    0.7531   -0.1284 H         1 <0>         0.0000
     32 H6          3.4496    2.2682   -3.4930 H         1 <0>         0.0000
     33 H7          2.4170    3.6919   -3.6954 H         1 <0>         0.0000
     34 H8          2.0153    2.1818   -4.5245 H         1 <0>         0.0000
     35 H9         -1.4206   -6.7153   -3.1685 H         1 <0>         0.0000
     36 H10         0.1294   -6.5573   -2.2840 H         1 <0>         0.0000
     37 H11        -1.4381   -6.2740   -1.4321 H         1 <0>         0.0000
     38 H12         6.4928   -1.0274    2.1096 H         1 <0>         0.0000
     39 H13         5.3543    0.3426    1.9295 H         1 <0>         0.0000
     40 H14         4.9308   -1.0598    2.9872 H         1 <0>         0.0000
     41 H15         2.5790    0.2803   -2.1056 H         1 <0>         0.0000
     42 H16         1.1492    0.1716   -3.1237 H         1 <0>         0.0000
     43 H17         0.7580   -2.0319   -2.7160 H         1 <0>         0.0000
     44 H18        -0.8402   -1.7506   -2.0383 H         1 <0>         0.0000
     45 H19         2.7863   -1.7748   -1.3731 H         1 <0>         0.0000
     46 H20         2.2100   -2.8401   -0.0949 H         1 <0>         0.0000
     47 H21         0.5420    2.5282   -2.4990 H         1 <0>         0.0000
     48 H22         1.9673    2.6239   -1.4756 H         1 <0>         0.0000
     49 H23         0.9973   -4.1378   -1.4240 H         1 <0>         0.0000
     50 H24        -0.5556   -3.8353   -0.5988 H         1 <0>         0.0000
     51 H25         3.0667    0.0586    0.4220 H         1 <0>         0.0000
     52 H26         2.5823   -1.1746    1.6300 H         1 <0>         0.0000
@<TRIPOS>BOND
     1    1    2 ar
     2    1    3 ar
     3    1   27 1
     4    2    4 ar
     5    2   28 1
     6    3    5 ar
     7    3   29 1
     8    4    6 ar
     9    4   30 1
    10    5    6 ar
    11    5    7 1
    12    6   24 1
    13    7    9 1
    14    7   19 2
    15    8    9 1
    16    8   13 1
    17    8   24 1
    18    8   31 1
    19    9   14 1
    20    9   15 1
    21   10   16 1
    22   10   32 1
    23   10   33 1
    24   10   34 1
    25   11   25 1
    26   11   35 1
    27   11   36 1
    28   11   37 1
    29   12   26 1
    30   12   38 1
    31   12   39 1
    32   12   40 1
    33   13   16 1
    34   13   41 1
    35   13   42 1
    36   14   17 1
    37   14   43 1
    38   14   44 1
    39   15   18 1
    40   15   45 1
    41   15   46 1
    42   16   47 1
    43   16   48 1
    44   17   25 1
    45   17   49 1
    46   17   50 1
    47   18   26 1
    48   18   51 1
    49   18   52 1
    50   20   25 2
    51   21   25 2
    52   22   26 2
    53   23   26 2
