@<TRIPOS>MOLECULE
*****
   18    19     0     0     0
SMALL
NO_CHARGES

@<TRIPOS>ATOM
      1 C1          0.8547    1.9670   -0.3235 C.ar      1 <0>         0.0000
      2 C2          2.0318    1.7661    0.3925 C.ar      1 <0>         0.0000
      3 C3          1.3793   -0.5095    0.9484 C.ar      1 <0>         0.0000
      4 C4         -0.0652    0.9184   -0.4017 C.ar      1 <0>         0.0000
      5 C5          2.2996    0.5375    1.0276 C.ar      1 <0>         0.0000
      6 C6          0.2060   -0.2873    0.2260 C.ar      1 <0>         0.0000
      7 C7         -2.0441   -0.1385   -1.0494 C.3       1 <0>         0.0000
      8 O1         -0.7281   -2.5375   -0.9115 O.2       1 <0>         0.0000
      9 O2         -1.8686   -1.6938    1.1992 O.2       1 <0>         0.0000
     10 O3         -1.2542    1.0428   -1.0935 O.3       1 <0>         0.0000
     11 O4          3.4874    0.4403    1.7078 O.3       1 <0>         0.0000
     12 S1         -1.1361   -1.4225   -0.0455 S.o2      1 <0>         0.0000
     13 H1          0.6467    2.9131   -0.8134 H         1 <0>         0.0000
     14 H2          2.7691    2.5588    0.4743 H         1 <0>         0.0000
     15 H3          1.5606   -1.4681    1.4290 H         1 <0>         0.0000
     16 H4         -2.9944    0.0622   -0.5511 H         1 <0>         0.0000
     17 H5         -2.1800   -0.5386   -2.0559 H         1 <0>         0.0000
     18 H6          3.5656   -0.4427    2.1026 H         1 <0>         0.0000
@<TRIPOS>BOND
     1    1    2 ar
     2    1    4 ar
     3    1   13 1
     4    2    5 ar
     5    2   14 1
     6    3    5 ar
     7    3    6 ar
     8    3   15 1
     9    4    6 ar
    10    4   10 1
    11    5   11 1
    12    6   12 1
    13    7   10 1
    14    7   12 1
    15    7   16 1
    16    7   17 1
    17    8   12 2
    18    9   12 2
    19   11   18 1
