@<TRIPOS>MOLECULE
*****
   44    46     0     0     0
SMALL
NO_CHARGES

@<TRIPOS>ATOM
      1 C1         -6.6960   -2.4688   -0.6932 C.ar      1 <0>         0.0000
      2 C2         -7.4974   -1.3525   -0.4433 C.ar      1 <0>         0.0000
      3 C3         -5.4376   -2.2733   -1.2640 C.ar      1 <0>         0.0000
      4 C4         -6.9953   -0.0926   -0.7829 C.ar      1 <0>         0.0000
      5 C5         -5.0157   -0.9707   -1.5700 C.ar      1 <0>         0.0000
      6 C6         -1.5586    1.2006    0.3963 C.3       1 <0>         0.0000
      7 C7         -1.1461    0.0500    1.3224 C.3       1 <0>         0.0000
      8 C8         -0.7518   -2.4574    1.5303 C.3       1 <0>         0.0000
      9 C9         -2.8132    0.8400   -0.4004 C.3       1 <0>         0.0000
     10 C10         0.7596   -2.3865    1.7991 C.3       1 <0>         0.0000
     11 C11        -2.3231   -1.5220   -0.2340 C.3       1 <0>         0.0000
     12 C12         0.2110   -1.3281   -0.3358 C.3       1 <0>         0.0000
     13 C13        -1.0361   -1.2894    0.5646 C.3       1 <0>         0.0000
     14 C14         3.9488   -1.3266    1.0460 C.3       1 <0>         0.0000
     15 C15        -3.6311   -0.7009   -2.1362 C.3       1 <0>         0.0000
     16 N1         -5.7896    0.1049   -1.3319 N.ar      1 <0>         0.0000
     17 N2         -2.5939   -0.4080   -1.1396 N.3       1 <0>         0.0000
     18 N3          1.2996   -1.6400    0.6298 N.pl3     1 <0>         0.0000
     19 O1          2.8491   -1.5778   -1.3644 O.2       1 <0>         0.0000
     20 O2          2.9435   -3.6054    0.1756 O.2       1 <0>         0.0000
     21 S1          2.7596   -2.1589   -0.0210 S.o2      1 <0>         0.0000
     22 H1         -7.0452   -3.4699   -0.4521 H         1 <0>         0.0000
     23 H2         -8.4860   -1.4498   -0.0037 H         1 <0>         0.0000
     24 H3         -4.7875   -3.1173   -1.4785 H         1 <0>         0.0000
     25 H4         -7.5928    0.8017   -0.6094 H         1 <0>         0.0000
     26 H5         -1.7486    2.1046    0.9863 H         1 <0>         0.0000
     27 H6         -0.7475    1.4372   -0.3007 H         1 <0>         0.0000
     28 H7         -0.1997    0.2819    1.8230 H         1 <0>         0.0000
     29 H8         -1.9046   -0.0636    2.1087 H         1 <0>         0.0000
     30 H9         -0.9947   -3.4066    1.0390 H         1 <0>         0.0000
     31 H10        -1.3391   -2.3959    2.4509 H         1 <0>         0.0000
     32 H11        -3.6764    0.7619    0.2843 H         1 <0>         0.0000
     33 H12        -3.0534    1.6284   -1.1195 H         1 <0>         0.0000
     34 H13         0.9838   -1.8283    2.7145 H         1 <0>         0.0000
     35 H14         1.2105   -3.3787    1.8761 H         1 <0>         0.0000
     36 H15        -2.2215   -2.4376   -0.8288 H         1 <0>         0.0000
     37 H16        -3.1536   -1.6910    0.4788 H         1 <0>         0.0000
     38 H17         0.1048   -2.1098   -1.0974 H         1 <0>         0.0000
     39 H18         0.4224   -0.3905   -0.8451 H         1 <0>         0.0000
     40 H19         4.9417   -1.6429    0.7213 H         1 <0>         0.0000
     41 H20         3.8205   -0.2509    0.9275 H         1 <0>         0.0000
     42 H21         3.7727   -1.6359    2.0775 H         1 <0>         0.0000
     43 H22        -3.2955   -1.5661   -2.7188 H         1 <0>         0.0000
     44 H23        -3.6965    0.1565   -2.8120 H         1 <0>         0.0000
@<TRIPOS>BOND
     1    1    2 ar
     2    1    3 ar
     3    1   22 1
     4    2    4 ar
     5    2   23 1
     6    3    5 ar
     7    3   24 1
     8    4   16 ar
     9    4   25 1
    10    5   15 1
    11    5   16 ar
    12    6    7 1
    13    6    9 1
    14    6   26 1
    15    6   27 1
    16    7   13 1
    17    7   28 1
    18    7   29 1
    19    8   10 1
    20    8   13 1
    21    8   30 1
    22    8   31 1
    23    9   17 1
    24    9   32 1
    25    9   33 1
    26   10   18 1
    27   10   34 1
    28   10   35 1
    29   11   13 1
    30   11   17 1
    31   11   36 1
    32   11   37 1
    33   12   13 1
    34   12   18 1
    35   12   38 1
    36   12   39 1
    37   14   21 1
    38   14   40 1
    39   14   41 1
    40   14   42 1
    41   15   17 1
    42   15   43 1
    43   15   44 1
    44   18   21 1
    45   19   21 2
    46   20   21 2
