@<TRIPOS>MOLECULE
*****
   34    36     0     0     0
SMALL
NO_CHARGES

@<TRIPOS>ATOM
      1 C1         -1.7235   -6.5243   -0.1257 C.ar      1 <0>         0.0000
      2 C2         -0.5594   -5.9433   -0.6424 C.ar      1 <0>         0.0000
      3 C3         -2.7036   -5.7109    0.4497 C.ar      1 <0>         0.0000
      4 C4          1.0213    2.6273    0.4093 C.ar      1 <0>         0.0000
      5 C5         -0.3795   -4.5599   -0.5873 C.ar      1 <0>         0.0000
      6 C6         -2.5199   -4.3252    0.5039 C.ar      1 <0>         0.0000
      7 C7          0.1826    1.9363   -0.4610 C.ar      1 <0>         0.0000
      8 C8          1.5966    1.9405    1.4813 C.ar      1 <0>         0.0000
      9 C9         -1.3621   -3.7338   -0.0180 C.ar      1 <0>         0.0000
     10 C10        -0.0967    0.5710   -0.2955 C.ar      1 <0>         0.0000
     11 C11         1.3420    0.5817    1.6852 C.ar      1 <0>         0.0000
     12 C12         0.4951   -0.1141    0.7850 C.ar      1 <0>         0.0000
     13 C13        -1.0608   -0.0705   -1.2782 C.3       1 <0>         0.0000
     14 C14        -1.0087   -1.5947   -1.3584 C.3       1 <0>         0.0000
     15 C15        -1.1952   -2.2317    0.0221 C.3       1 <0>         0.0000
     16 C16         1.9831   -0.1141    2.8643 C.3       1 <0>         0.0000
     17 O1          2.9343   -1.1191    2.4836 O.3       1 <0>         0.0000
     18 S1          0.2601   -1.8580    1.0928 S.3       1 <0>         0.0000
     19 H1         -1.8617   -7.6016   -0.1671 H         1 <0>         0.0000
     20 H2          0.2110   -6.5703   -1.0840 H         1 <0>         0.0000
     21 H3         -3.6083   -6.1529    0.8592 H         1 <0>         0.0000
     22 H4          1.2235    3.6840    0.2572 H         1 <0>         0.0000
     23 H5          0.5350   -4.1191   -0.9746 H         1 <0>         0.0000
     24 H6         -3.2835   -3.6970    0.9576 H         1 <0>         0.0000
     25 H7         -0.2734    2.4606   -1.2989 H         1 <0>         0.0000
     26 H8          2.2480    2.4647    2.1774 H         1 <0>         0.0000
     27 H9         -2.0816    0.2312   -1.0061 H         1 <0>         0.0000
     28 H10        -0.8795    0.3502   -2.2731 H         1 <0>         0.0000
     29 H11        -1.8061   -1.9507   -2.0210 H         1 <0>         0.0000
     30 H12        -0.0576   -1.9254   -1.7877 H         1 <0>         0.0000
     31 H13        -2.0787   -1.7942    0.4971 H         1 <0>         0.0000
     32 H14         2.4556    0.6349    3.5140 H         1 <0>         0.0000
     33 H15         1.2323   -0.6473    3.4548 H         1 <0>         0.0000
     34 H16         3.5322   -0.7221    1.8303 H         1 <0>         0.0000
@<TRIPOS>BOND
     1    1    3 ar
     2    1    2 ar
     3    1   19 1
     4    2    5 ar
     5    2   20 1
     6    3    6 ar
     7    3   21 1
     8    4    7 ar
     9    4    8 ar
    10    4   22 1
    11    5    9 ar
    12    5   23 1
    13    6    9 ar
    14    6   24 1
    15    7   10 ar
    16    7   25 1
    17    8   11 ar
    18    8   26 1
    19    9   15 1
    20   10   12 ar
    21   10   13 1
    22   11   12 ar
    23   11   16 1
    24   12   18 1
    25   13   14 1
    26   13   27 1
    27   13   28 1
    28   14   15 1
    29   14   29 1
    30   14   30 1
    31   15   18 1
    32   15   31 1
    33   16   17 1
    34   16   32 1
    35   16   33 1
    36   17   34 1
