@<TRIPOS>MOLECULE
*****
   38    38     0     0     0
SMALL
NO_CHARGES

@<TRIPOS>ATOM
      1 C1         -0.5802   -1.2498    0.1008 C.3       1 <0>         0.0000
      2 C2         -0.3944   -2.6770   -0.4817 C.3       1 <0>         0.0000
      3 C3          0.8426   -0.6645    0.1225 C.3       1 <0>         0.0000
      4 C4          1.1349   -2.8614   -0.6301 C.3       1 <0>         0.0000
      5 C5          1.6162   -4.2745   -0.3022 C.3       1 <0>         0.0000
      6 C6          3.1316   -4.4469   -0.4648 C.3       1 <0>         0.0000
      7 C7          7.1582   -8.1148   -0.1465 C.3       1 <0>         0.0000
      8 C8          7.4421   -9.5781    0.2133 C.3       1 <0>         0.0000
      9 C9          3.5620   -5.8838   -0.1680 C.3       1 <0>         0.0000
     10 C10         5.6696   -7.8058    0.0188 C.3       1 <0>         0.0000
     11 C11         8.9015   -9.9485    0.0542 C.3       1 <0>         0.0000
     12 N1          1.6822   -1.8579    0.2989 N.3       1 <0>         0.0000
     13 O1          6.0439   -5.2248    0.5938 O.2       1 <0>         0.0000
     14 O2          5.6499   -5.8897   -1.8419 O.2       1 <0>         0.0000
     15 F1          9.1148  -11.2477    0.3847 F         1 <0>         0.0000
     16 F2          9.3317   -9.7858   -1.2223 F         1 <0>         0.0000
     17 F3          9.7075   -9.1977    0.8460 F         1 <0>         0.0000
     18 S1          5.3559   -6.0615   -0.4067 S.o2      1 <0>         0.0000
     19 H1         -1.2641   -0.6357   -0.4913 H         1 <0>         0.0000
     20 H2         -0.9783   -1.3030    1.1176 H         1 <0>         0.0000
     21 H3         -0.8022   -3.4295    0.2002 H         1 <0>         0.0000
     22 H4         -0.8960   -2.8049   -1.4449 H         1 <0>         0.0000
     23 H5          1.0479   -0.1410   -0.8281 H         1 <0>         0.0000
     24 H6          1.0016    0.0453    0.9403 H         1 <0>         0.0000
     25 H7          1.4161   -2.6307   -1.6751 H         1 <0>         0.0000
     26 H8          1.3235   -4.5056    0.7294 H         1 <0>         0.0000
     27 H9          1.0936   -4.9835   -0.9582 H         1 <0>         0.0000
     28 H10         3.6592   -3.7748    0.2181 H         1 <0>         0.0000
     29 H11         3.4296   -4.1865   -1.4862 H         1 <0>         0.0000
     30 H12         7.7403   -7.4517    0.4987 H         1 <0>         0.0000
     31 H13         7.4561   -7.9189   -1.1798 H         1 <0>         0.0000
     32 H14         7.1717   -9.7887    1.2525 H         1 <0>         0.0000
     33 H15         6.8706  -10.2597   -0.4240 H         1 <0>         0.0000
     34 H16         3.3514   -6.1614    0.8692 H         1 <0>         0.0000
     35 H17         3.0850   -6.5985   -0.8457 H         1 <0>         0.0000
     36 H18         5.0513   -8.4109   -0.6510 H         1 <0>         0.0000
     37 H19         5.3368   -7.9432    1.0520 H         1 <0>         0.0000
     38 H20         2.6579   -1.6531    0.0954 H         1 <0>         0.0000
@<TRIPOS>BOND
     1    1    2 1
     2    1    3 1
     3    1   19 1
     4    1   20 1
     5    2    4 1
     6    2   21 1
     7    2   22 1
     8    3   12 1
     9    3   23 1
    10    3   24 1
    11    4    5 1
    12    4   12 1
    13    4   25 1
    14    5    6 1
    15    5   26 1
    16    5   27 1
    17    6    9 1
    18    6   28 1
    19    6   29 1
    20    7    8 1
    21    7   10 1
    22    7   30 1
    23    7   31 1
    24    8   11 1
    25    8   32 1
    26    8   33 1
    27    9   18 1
    28    9   34 1
    29    9   35 1
    30   10   18 1
    31   10   36 1
    32   10   37 1
    33   11   15 1
    34   11   16 1
    35   11   17 1
    36   12   38 1
    37   13   18 2
    38   14   18 2
