@<TRIPOS>MOLECULE
*****
   26    26     0     0     0
SMALL
NO_CHARGES

@<TRIPOS>ATOM
      1 C1          3.2012    3.9247    1.5265 C.ar      1 <0>         0.0000
      2 C2          3.7612    4.8203    2.4431 C.ar      1 <0>         0.0000
      3 C3          5.4545    3.1937    2.9974 C.ar      1 <0>         0.0000
      4 C4          3.7563    2.6541    1.3279 C.ar      1 <0>         0.0000
      5 C5          4.8902    4.4647    3.1860 C.ar      1 <0>         0.0000
      6 C6          4.8946    2.3079    2.0835 C.ar      1 <0>         0.0000
      7 C7          1.4729   -0.4112   -0.3035 C.3       1 <0>         0.0000
      8 C8          0.5865    1.1678   -2.0841 C.3       1 <0>         0.0000
      9 C9          2.1100    2.0342   -0.3025 C.3       1 <0>         0.0000
     10 C10         1.7666    0.8231   -1.1654 C.3       1 <0>         0.0000
     11 O1          3.2822    1.7236    0.4582 O.3       1 <0>         0.0000
     12 S1          5.6737    5.5441    4.3735 S.3       1 <0>         0.0000
     13 Cl1         5.6167    0.7276    1.8693 Cl        1 <0>         0.0000
     14 H1          2.3258    4.2307    0.9658 H         1 <0>         0.0000
     15 H2          3.3033    5.7979    2.5670 H         1 <0>         0.0000
     16 H3          6.3301    2.8846    3.5604 H         1 <0>         0.0000
     17 H4          0.5931   -0.2422    0.3301 H         1 <0>         0.0000
     18 H5          2.3192   -0.6487    0.3460 H         1 <0>         0.0000
     19 H6          1.2674   -1.2829   -0.9338 H         1 <0>         0.0000
     20 H7         -0.3113    1.4073   -1.5013 H         1 <0>         0.0000
     21 H8          0.3420    0.3195   -2.7311 H         1 <0>         0.0000
     22 H9          0.8097    2.0259   -2.7283 H         1 <0>         0.0000
     23 H10         2.3021    2.9144   -0.9309 H         1 <0>         0.0000
     24 H11         1.2781    2.2673    0.3778 H         1 <0>         0.0000
     25 H12         2.6454    0.6124   -1.7879 H         1 <0>         0.0000
     26 H13         4.8014    6.5651    4.2576 H         1 <0>         0.0000
@<TRIPOS>BOND
     1    1    2 ar
     2    1    4 ar
     3    1   14 1
     4    2    5 ar
     5    2   15 1
     6    3    5 ar
     7    3    6 ar
     8    3   16 1
     9    4    6 ar
    10    4   11 1
    11    5   12 1
    12    6   13 1
    13    7   10 1
    14    7   17 1
    15    7   18 1
    16    7   19 1
    17    8   10 1
    18    8   20 1
    19    8   21 1
    20    8   22 1
    21    9   10 1
    22    9   11 1
    23    9   23 1
    24    9   24 1
    25   10   25 1
    26   12   26 1
