@<TRIPOS>MOLECULE
*****
   21    22     0     0     0
SMALL
NO_CHARGES

@<TRIPOS>ATOM
      1 C1          1.9818   -4.9643   -2.8230 C.2       1 <0>         0.0000
      2 C2          2.0724   -3.5467   -2.9386 C.2       1 <0>         0.0000
      3 C3          1.1971   -5.2000   -1.7227 C.2       1 <0>         0.0000
      4 C4          1.3340   -3.0109   -1.8973 C.2       1 <0>         0.0000
      5 C5         -0.8630   -0.8853    1.2153 C.2       1 <0>         0.0000
      6 C6          0.3716   -1.1309   -0.5263 C.2       1 <0>         0.0000
      7 C7          0.2332    0.3422   -0.3191 C.2       1 <0>         0.0000
      8 C8          1.0976   -1.6473   -1.5533 C.2       1 <0>         0.0000
      9 C9         -1.0145    1.6508    1.4488 C.3       1 <0>         0.0000
     10 N1         -0.3414   -1.8160    0.4725 N.2       1 <0>         0.0000
     11 N2         -0.5782    0.4154    0.8250 N.am      1 <0>         0.0000
     12 O1          0.6823    1.2968   -0.9440 O.2       1 <0>         0.0000
     13 O2          0.7975   -4.0347   -1.1521 O.3       1 <0>         0.0000
     14 H1          2.4325   -5.7118   -3.4621 H         1 <0>         0.0000
     15 H2          2.6089   -2.9786   -3.6875 H         1 <0>         0.0000
     16 H3          0.8487   -6.1030   -1.2409 H         1 <0>         0.0000
     17 H4         -1.4827   -1.0772    2.0869 H         1 <0>         0.0000
     18 H5          1.5676   -0.9176   -2.2092 H         1 <0>         0.0000
     19 H6         -0.6556    1.7184    2.4808 H         1 <0>         0.0000
     20 H7         -2.1061    1.7329    1.4386 H         1 <0>         0.0000
     21 H8         -0.5907    2.4739    0.8702 H         1 <0>         0.0000
@<TRIPOS>BOND
     1    1    2 1
     2    1    3 2
     3    1   14 1
     4    2    4 2
     5    2   15 1
     6    3   13 1
     7    3   16 1
     8    4    8 1
     9    4   13 1
    10    5   10 2
    11    5   11 1
    12    5   17 1
    13    6    7 1
    14    6    8 2
    15    6   10 1
    16    7   11 am
    17    7   12 2
    18    8   18 1
    19    9   11 1
    20    9   19 1
    21    9   20 1
    22    9   21 1
