@<TRIPOS>MOLECULE
*****
   26    27     0     0     0
SMALL
NO_CHARGES

@<TRIPOS>ATOM
      1 C1          3.0938   -4.3927   -0.2935 C.ar      1 <0>         0.0000
      2 C2          5.4816   -4.7032   -0.5772 C.ar      1 <0>         0.0000
      3 C3          2.3496   -0.7205   -0.1123 C.ar      1 <0>         0.0000
      4 C4          2.9246   -5.7744   -0.1979 C.ar      1 <0>         0.0000
      5 C5          5.3149   -6.0874   -0.5016 C.ar      1 <0>         0.0000
      6 C6          1.3341   -0.1647    0.6656 C.ar      1 <0>         0.0000
      7 C7          2.4169   -1.0458    2.6490 C.ar      1 <0>         0.0000
      8 C8          3.4583   -1.5788    1.8762 C.ar      1 <0>         0.0000
      9 C9          4.3728   -3.8550   -0.4788 C.ar      1 <0>         0.0000
     10 C10         3.4102   -1.4248    0.4723 C.ar      1 <0>         0.0000
     11 C11         4.0363   -6.6132   -0.3092 C.ar      1 <0>         0.0000
     12 C12         1.3755   -0.3421    2.0490 C.ar      1 <0>         0.0000
     13 C13         4.5377   -2.2767    2.6877 C.2       1 <0>         0.0000
     14 O1          4.3216   -2.6529    3.8204 O.2       1 <0>         0.0000
     15 O2          5.7630   -2.4154    2.1447 O.3       1 <0>         0.0000
     16 S1          4.6435   -2.0856   -0.6574 S.3       1 <0>         0.0000
     17 Cl1         3.8223   -8.3490   -0.1980 Cl        1 <0>         0.0000
     18 Cl2         0.1002    0.3252    3.0442 Cl        1 <0>         0.0000
     19 H1          2.2284   -3.7426   -0.2112 H         1 <0>         0.0000
     20 H2          6.4795   -4.2913   -0.6988 H         1 <0>         0.0000
     21 H3          2.3153   -0.6186   -1.1926 H         1 <0>         0.0000
     22 H4          1.9364   -6.1959   -0.0436 H         1 <0>         0.0000
     23 H5          6.1728   -6.7483   -0.5726 H         1 <0>         0.0000
     24 H6          0.5187    0.3823    0.2032 H         1 <0>         0.0000
     25 H7          2.4466   -1.1903    3.7232 H         1 <0>         0.0000
     26 H8          5.7575   -2.1303    1.2028 H         1 <0>         0.0000
@<TRIPOS>BOND
     1    1    4 ar
     2    1    9 ar
     3    1   19 1
     4    2    5 ar
     5    2    9 ar
     6    2   20 1
     7    3    6 ar
     8    3   10 ar
     9    3   21 1
    10    4   11 ar
    11    4   22 1
    12    5   11 ar
    13    5   23 1
    14    6   12 ar
    15    6   24 1
    16    7    8 ar
    17    7   12 ar
    18    7   25 1
    19    8   10 ar
    20    8   13 1
    21    9   16 1
    22   10   16 1
    23   11   17 1
    24   12   18 1
    25   13   14 2
    26   13   15 1
    27   15   26 1
