@<TRIPOS>MOLECULE
*****
   43    44     0     0     0
SMALL
NO_CHARGES

@<TRIPOS>ATOM
      1 C1          5.1244   -3.0004   -3.7755 C.ar      1 <0>         0.0000
      2 C2          4.1772   -2.3056   -4.5372 C.ar      1 <0>         0.0000
      3 C3          4.9063   -3.2324   -2.4128 C.ar      1 <0>         0.0000
      4 C4          3.0084   -1.8314   -3.9368 C.ar      1 <0>         0.0000
      5 C5          3.7413   -2.7624   -1.8001 C.ar      1 <0>         0.0000
      6 C6         -1.0890   -0.0908    1.9848 C.2       1 <0>         0.0000
      7 C7          0.9148    0.4283    1.6192 C.2       1 <0>         0.0000
      8 C8          2.8125   -2.0619   -2.5729 C.ar      1 <0>         0.0000
      9 C9          0.3426    5.0128   -0.7643 C.3       1 <0>         0.0000
     10 C10        -1.4899    3.3084   -1.0623 C.3       1 <0>         0.0000
     11 C11        -0.2901    3.5399    1.1393 C.3       1 <0>         0.0000
     12 C12         1.8233    0.2632   -1.3330 C.3       1 <0>         0.0000
     13 C13         0.6245    1.0761   -0.8302 C.3       1 <0>         0.0000
     14 C14         0.9636    2.5955   -0.8888 C.3       1 <0>         0.0000
     15 C15        -0.1300    3.5900   -0.3945 C.3       1 <0>         0.0000
     16 N1          0.1311   -0.0074    2.5947 N.2       1 <0>         0.0000
     17 N2         -1.1017    0.2713    0.7072 N.2       1 <0>         0.0000
     18 N3          0.2003    0.6062    0.4824 N.pl3     1 <0>         0.0000
     19 O1          0.2768   -1.2970   -2.8118 O.2       1 <0>         0.0000
     20 O2          1.0949   -2.2022   -0.5532 O.2       1 <0>         0.0000
     21 O3          1.3635    2.8719   -2.2384 O.3       1 <0>         0.0000
     22 S1          1.3244   -1.4323   -1.7846 S.o2      1 <0>         0.0000
     23 H1          6.0306   -3.3700   -4.2479 H         1 <0>         0.0000
     24 H2          4.3441   -2.1413   -5.5981 H         1 <0>         0.0000
     25 H3          5.6373   -3.7854   -1.8296 H         1 <0>         0.0000
     26 H4          2.2480   -1.3124   -4.5128 H         1 <0>         0.0000
     27 H5          3.5373   -2.9513   -0.7505 H         1 <0>         0.0000
     28 H6         -1.9852   -0.4299    2.4876 H         1 <0>         0.0000
     29 H7          1.9763    0.6214    1.6963 H         1 <0>         0.0000
     30 H8          1.3207    5.2311   -0.3205 H         1 <0>         0.0000
     31 H9          0.4324    5.1540   -1.8437 H         1 <0>         0.0000
     32 H10        -0.3715    5.7489   -0.3810 H         1 <0>         0.0000
     33 H11        -1.9025    2.3425   -0.7596 H         1 <0>         0.0000
     34 H12        -1.4295    3.3310   -2.1588 H         1 <0>         0.0000
     35 H13        -2.2099    4.0820   -0.7761 H         1 <0>         0.0000
     36 H14        -0.7898    2.6371    1.4883 H         1 <0>         0.0000
     37 H15         0.6792    3.6183    1.6444 H         1 <0>         0.0000
     38 H16        -0.8969    4.3912    1.4658 H         1 <0>         0.0000
     39 H17         2.2178    0.7210   -2.2403 H         1 <0>         0.0000
     40 H18         2.6200    0.1787   -0.5907 H         1 <0>         0.0000
     41 H19        -0.2241    0.8866   -1.4908 H         1 <0>         0.0000
     42 H20         1.8689    2.7746   -0.2969 H         1 <0>         0.0000
     43 H21         0.5663    2.8726   -2.7934 H         1 <0>         0.0000
@<TRIPOS>BOND
     1    1    3 ar
     2    1    2 ar
     3    1   23 1
     4    2    4 ar
     5    2   24 1
     6    3    5 ar
     7    3   25 1
     8    4    8 ar
     9    4   26 1
    10    5    8 ar
    11    5   27 1
    12    6   16 1
    13    6   17 2
    14    6   28 1
    15    7   16 2
    16    7   18 1
    17    7   29 1
    18    8   22 1
    19    9   15 1
    20    9   30 1
    21    9   31 1
    22    9   32 1
    23   10   15 1
    24   10   33 1
    25   10   34 1
    26   10   35 1
    27   11   15 1
    28   11   36 1
    29   11   37 1
    30   11   38 1
    31   12   13 1
    32   12   22 1
    33   12   39 1
    34   12   40 1
    35   13   14 1
    36   13   18 1
    37   13   41 1
    38   14   15 1
    39   14   21 1
    40   14   42 1
    41   17   18 1
    42   19   22 2
    43   20   22 2
    44   21   43 1
