@<TRIPOS>MOLECULE
*****
   26    27     0     0     0
SMALL
NO_CHARGES

@<TRIPOS>ATOM
      1 C1          5.2481    0.0007   -0.4709 C.ar      1 <0>         0.0000
      2 C2          4.7649   -0.9386   -2.6547 C.ar      1 <0>         0.0000
      3 C3          1.5204   -1.1297   -0.1676 C.ar      1 <0>         0.0000
      4 C4          5.8575    1.0993   -1.0781 C.ar      1 <0>         0.0000
      5 C5          5.3943    0.1485   -3.2685 C.ar      1 <0>         0.0000
      6 C6          0.4532   -0.5934    0.5511 C.ar      1 <0>         0.0000
      7 C7          1.5921   -1.1504    2.6194 C.ar      1 <0>         0.0000
      8 C8          2.6845   -1.6428    1.8882 C.ar      1 <0>         0.0000
      9 C9          4.6882   -1.0155   -1.2585 C.ar      1 <0>         0.0000
     10 C10         2.6467   -1.6535    0.4810 C.ar      1 <0>         0.0000
     11 C11         5.9274    1.1632   -2.4728 C.ar      1 <0>         0.0000
     12 C12         0.4946   -0.6197    1.9473 C.ar      1 <0>         0.0000
     13 C13         3.9033   -2.0425    2.6600 C.2       1 <0>         0.0000
     14 O1          5.0429   -1.7158    2.3930 O.2       1 <0>         0.0000
     15 O2          3.5931   -2.7728    3.7627 O.3       1 <0>         0.0000
     16 S1          3.9180   -2.4500   -0.5071 S.3       1 <0>         0.0000
     17 Cl1         6.7010    2.5425   -3.2363 Cl        1 <0>         0.0000
     18 Cl2        -0.8537    0.0188    2.8658 Cl        1 <0>         0.0000
     19 H1          5.2194   -0.0805    0.6107 H         1 <0>         0.0000
     20 H2          4.3277   -1.7231   -3.2657 H         1 <0>         0.0000
     21 H3          1.4809   -1.1493   -1.2524 H         1 <0>         0.0000
     22 H4          6.2886    1.8919   -0.4744 H         1 <0>         0.0000
     23 H5          5.4568    0.2117   -4.3503 H         1 <0>         0.0000
     24 H6         -0.4091   -0.1809    0.0368 H         1 <0>         0.0000
     25 H7          1.6149   -1.1661    3.7034 H         1 <0>         0.0000
     26 H8          4.4368   -2.9340    4.2288 H         1 <0>         0.0000
@<TRIPOS>BOND
     1    1    4 ar
     2    1    9 ar
     3    1   19 1
     4    2    5 ar
     5    2    9 ar
     6    2   20 1
     7    3    6 ar
     8    3   10 ar
     9    3   21 1
    10    4   11 ar
    11    4   22 1
    12    5   11 ar
    13    5   23 1
    14    6   12 ar
    15    6   24 1
    16    7    8 ar
    17    7   12 ar
    18    7   25 1
    19    8   10 ar
    20    8   13 1
    21    9   16 1
    22   10   16 1
    23   11   17 1
    24   12   18 1
    25   13   14 2
    26   13   15 1
    27   15   26 1
