@<TRIPOS>MOLECULE
*****
   24    24     0     0     0
SMALL
NO_CHARGES

@<TRIPOS>ATOM
      1 C1          2.0304   -1.0400   -0.3523 C.ar      1 <0>         0.0000
      2 C2          3.2288   -1.3338    0.3043 C.ar      1 <0>         0.0000
      3 C3          0.8583   -0.8698    0.3931 C.ar      1 <0>         0.0000
      4 C4          3.2560   -1.4530    1.6971 C.ar      1 <0>         0.0000
      5 C5          0.8861   -0.9898    1.7834 C.ar      1 <0>         0.0000
      6 C6          2.0864   -1.2808    2.4526 C.ar      1 <0>         0.0000
      7 C7          3.2574   -2.1263    4.6029 C.3       1 <0>         0.0000
      8 C8          3.2721    1.2867    3.9108 C.3       1 <0>         0.0000
      9 C9          2.0945   -1.3711    3.9615 C.3       1 <0>         0.0000
     10 O1          0.6678    0.9009    4.2730 O.2       1 <0>         0.0000
     11 O2          2.2746    0.2251    6.1382 O.2       1 <0>         0.0000
     12 S1          1.9570    0.3295    4.7017 S.o2      1 <0>         0.0000
     13 H1          2.0085   -0.9482   -1.4351 H         1 <0>         0.0000
     14 H2          4.1433   -1.4737   -0.2661 H         1 <0>         0.0000
     15 H3         -0.0784   -0.6417   -0.1085 H         1 <0>         0.0000
     16 H4          4.1960   -1.6868    2.1872 H         1 <0>         0.0000
     17 H5         -0.0208   -0.8340    2.3598 H         1 <0>         0.0000
     18 H6          4.2236   -1.6557    4.4010 H         1 <0>         0.0000
     19 H7          3.1275   -2.1682    5.6851 H         1 <0>         0.0000
     20 H8          3.2897   -3.1456    4.2067 H         1 <0>         0.0000
     21 H9          3.2258    2.2732    4.3762 H         1 <0>         0.0000
     22 H10         4.2360    0.8194    4.1163 H         1 <0>         0.0000
     23 H11         3.0767    1.3532    2.8411 H         1 <0>         0.0000
     24 H12         1.1466   -1.8001    4.3045 H         1 <0>         0.0000
@<TRIPOS>BOND
     1    1    3 ar
     2    1    2 ar
     3    1   13 1
     4    2    4 ar
     5    2   14 1
     6    3    5 ar
     7    3   15 1
     8    4    6 ar
     9    4   16 1
    10    5    6 ar
    11    5   17 1
    12    6    9 1
    13    7    9 1
    14    7   18 1
    15    7   19 1
    16    7   20 1
    17    8   12 1
    18    8   21 1
    19    8   22 1
    20    8   23 1
    21    9   12 1
    22    9   24 1
    23   10   12 2
    24   11   12 2
