@<TRIPOS>MOLECULE
*****
   36    37     0     0     0
SMALL
NO_CHARGES

@<TRIPOS>ATOM
      1 C1         -0.6539    0.4218   -0.2443 C.1       1 <0>         0.0000
      2 C2         -1.5556    0.8515   -0.9398 C.1       1 <0>         0.0000
      3 C3          1.5003   -0.7484    0.0058 C.ar      1 <0>         0.0000
      4 C4          0.3614    0.0686    1.9722 C.ar      1 <0>         0.0000
      5 C5          0.4027   -0.0804    0.5769 C.ar      1 <0>         0.0000
      6 C6          2.5375   -1.2433    0.7968 C.ar      1 <0>         0.0000
      7 C7          1.3887   -0.4157    2.7859 C.ar      1 <0>         0.0000
      8 C8          2.4940   -1.0589    2.1950 C.ar      1 <0>         0.0000
      9 C9          3.4557   -3.0614    3.4463 C.2       1 <0>         0.0000
     10 C10        -2.3042    1.7728   -3.2153 C.3       1 <0>         0.0000
     11 C11        -3.0871    0.5106   -2.9706 C.3       1 <0>         0.0000
     12 C12        -2.6147    1.3459   -1.7831 C.3       1 <0>         0.0000
     13 C13         3.6788   -1.9869    0.1395 C.3       1 <0>         0.0000
     14 C14         1.9714    1.0891    4.7545 C.3       1 <0>         0.0000
     15 C15         3.6201   -1.5909    3.0497 C.3       1 <0>         0.0000
     16 C16         1.2809   -0.2041    4.2835 C.3       1 <0>         0.0000
     17 O1          2.5553   -3.7858    3.1031 O.2       1 <0>         0.0000
     18 O2          4.4506   -3.5422    4.2564 O.3       1 <0>         0.0000
     19 H1          1.5298   -0.8852   -1.0716 H         1 <0>         0.0000
     20 H2         -0.4936    0.5651    2.4235 H         1 <0>         0.0000
     21 H3         -1.2731    1.6800   -3.5398 H         1 <0>         0.0000
     22 H4         -2.8296    2.6439   -3.5955 H         1 <0>         0.0000
     23 H5         -4.1524    0.5117   -3.1814 H         1 <0>         0.0000
     24 H6         -2.5880   -0.4396   -3.1282 H         1 <0>         0.0000
     25 H7         -3.3823    1.9204   -1.2705 H         1 <0>         0.0000
     26 H8          4.6399   -1.4798    0.2890 H         1 <0>         0.0000
     27 H9          3.7739   -3.0026    0.5379 H         1 <0>         0.0000
     28 H10         3.5192   -2.0682   -0.9383 H         1 <0>         0.0000
     29 H11         3.0397    1.0898    4.5113 H         1 <0>         0.0000
     30 H12         1.8703    1.2166    5.8377 H         1 <0>         0.0000
     31 H13         1.5281    1.9615    4.2640 H         1 <0>         0.0000
     32 H14         3.7302   -1.0070    3.9683 H         1 <0>         0.0000
     33 H15         4.5785   -1.5015    2.5254 H         1 <0>         0.0000
     34 H16         0.2215   -0.1554    4.5546 H         1 <0>         0.0000
     35 H17         1.6847   -1.0643    4.8272 H         1 <0>         0.0000
     36 H18         5.0977   -2.8398    4.4400 H         1 <0>         0.0000
@<TRIPOS>BOND
     1    1    2 3
     2    1    5 1
     3    2   12 1
     4    3    5 ar
     5    3    6 ar
     6    3   19 1
     7    4    5 ar
     8    4    7 ar
     9    4   20 1
    10    6    8 ar
    11    6   13 1
    12    7    8 ar
    13    7   16 1
    14    8   15 1
    15    9   15 1
    16    9   17 2
    17    9   18 1
    18   10   11 1
    19   10   12 1
    20   10   21 1
    21   10   22 1
    22   11   12 1
    23   11   23 1
    24   11   24 1
    25   12   25 1
    26   13   26 1
    27   13   27 1
    28   13   28 1
    29   14   16 1
    30   14   29 1
    31   14   30 1
    32   14   31 1
    33   15   32 1
    34   15   33 1
    35   16   34 1
    36   16   35 1
    37   18   36 1
