@<TRIPOS>MOLECULE
*****
   56    58     0     0     0
SMALL
NO_CHARGES

@<TRIPOS>ATOM
      1 C1          2.2514   -2.3080   -0.1866 C.ar      1 <0>         0.0000
      2 C2          1.4427   -1.6185    0.7144 C.ar      1 <0>         0.0000
      3 C3         -3.4298    0.6083   -0.2939 C.ar      1 <0>         0.0000
      4 C4         -3.8987    0.2915    2.0282 C.ar      1 <0>         0.0000
      5 C5          1.4915    0.3318   -0.7495 C.ar      1 <0>         0.0000
      6 C6         -2.0552    0.6698   -0.0470 C.ar      1 <0>         0.0000
      7 C7          2.6976   -1.7020   -1.3654 C.ar      1 <0>         0.0000
      8 C8         -4.3695    0.3978    0.7221 C.ar      1 <0>         0.0000
      9 C9         -2.5327    0.3649    2.3245 C.ar      1 <0>         0.0000
     10 C10         2.3089   -0.3809   -1.6440 C.ar      1 <0>         0.0000
     11 C11         1.0654   -0.3090    0.4215 C.ar      1 <0>         0.0000
     12 C12        -1.5904    0.5190    1.2808 C.ar      1 <0>         0.0000
     13 C13         1.0765    1.7421   -1.0761 C.2       1 <0>         0.0000
     14 C14        -1.1835    0.8384   -1.2749 C.3       1 <0>         0.0000
     15 C15        -5.8414    0.2912    0.4071 C.3       1 <0>         0.0000
     16 C16         7.0595   -1.0935   -0.9511 C.3       1 <0>         0.0000
     17 C17         6.0097   -0.4760   -3.1633 C.3       1 <0>         0.0000
     18 C18        -1.8369    1.4656    4.3164 C.3       1 <0>         0.0000
     19 C19         1.8115    0.4036   -3.8376 C.3       1 <0>         0.0000
     20 C20         5.0817   -2.4078   -1.7802 C.3       1 <0>         0.0000
     21 C21         3.6293   -2.4538   -2.2923 C.3       1 <0>         0.0000
     22 C22         5.7510   -1.0222   -1.7516 C.3       1 <0>         0.0000
     23 O1          1.8485    2.6477   -1.2612 O.2       1 <0>         0.0000
     24 O2          0.5957    2.0012    1.6485 O.2       1 <0>         0.0000
     25 O3          0.3926   -0.1779    2.9432 O.2       1 <0>         0.0000
     26 O4         -0.2688    1.9481   -1.2071 O.3       1 <0>         0.0000
     27 O5          3.1564   -3.8118   -2.3410 O.3       1 <0>         0.0000
     28 O6         -2.1922    0.2444    3.6419 O.3       1 <0>         0.0000
     29 O7          2.7774    0.2075   -2.7958 O.3       1 <0>         0.0000
     30 S1          0.1779    0.5944    1.7155 S.o2      1 <0>         0.0000
     31 H1          2.5432   -3.3334    0.0147 H         1 <0>         0.0000
     32 H2          1.1270   -2.0681    1.6494 H         1 <0>         0.0000
     33 H3         -3.7800    0.7324   -1.3161 H         1 <0>         0.0000
     34 H4         -4.5800    0.1578    2.8643 H         1 <0>         0.0000
     35 H5         -0.6520   -0.0883   -1.5017 H         1 <0>         0.0000
     36 H6         -1.8308    1.0614   -2.1243 H         1 <0>         0.0000
     37 H7         -6.0994   -0.7352    0.1201 H         1 <0>         0.0000
     38 H8         -6.4554    0.5563    1.2718 H         1 <0>         0.0000
     39 H9         -6.1195    0.9448   -0.4249 H         1 <0>         0.0000
     40 H10         7.7661   -1.7935   -1.4145 H         1 <0>         0.0000
     41 H11         7.5443   -0.1125   -0.9066 H         1 <0>         0.0000
     42 H12         6.8816   -1.4271    0.0772 H         1 <0>         0.0000
     43 H13         6.6778   -1.1445   -3.7217 H         1 <0>         0.0000
     44 H14         5.0824   -0.3579   -3.7287 H         1 <0>         0.0000
     45 H15         6.4882    0.5077   -3.1136 H         1 <0>         0.0000
     46 H16        -1.5012    1.1689    5.3102 H         1 <0>         0.0000
     47 H17        -2.7153    2.1186    4.3939 H         1 <0>         0.0000
     48 H18        -1.0282    1.9943    3.8059 H         1 <0>         0.0000
     49 H19         2.3652    0.7956   -4.6920 H         1 <0>         0.0000
     50 H20         1.0472    1.1324   -3.5494 H         1 <0>         0.0000
     51 H21         1.3368   -0.5481   -4.1071 H         1 <0>         0.0000
     52 H22         5.6855   -3.0725   -2.4173 H         1 <0>         0.0000
     53 H23         5.0870   -2.8450   -0.7744 H         1 <0>         0.0000
     54 H24         3.5757   -2.0099   -3.2911 H         1 <0>         0.0000
     55 H25         5.0812   -0.3245   -1.2345 H         1 <0>         0.0000
     56 H26         3.8290   -4.3385   -2.8010 H         1 <0>         0.0000
@<TRIPOS>BOND
     1    1    2 ar
     2    1    7 ar
     3    1   31 1
     4    2   11 ar
     5    2   32 1
     6    3    6 ar
     7    3    8 ar
     8    3   33 1
     9    4    8 ar
    10    4    9 ar
    11    4   34 1
    12    5   10 ar
    13    5   11 ar
    14    5   13 1
    15    6   12 ar
    16    6   14 1
    17    7   10 ar
    18    7   21 1
    19    8   15 1
    20    9   12 ar
    21    9   28 1
    22   10   29 1
    23   11   30 1
    24   12   30 1
    25   13   23 2
    26   13   26 1
    27   14   26 1
    28   14   35 1
    29   14   36 1
    30   15   37 1
    31   15   38 1
    32   15   39 1
    33   16   22 1
    34   16   40 1
    35   16   41 1
    36   16   42 1
    37   17   22 1
    38   17   43 1
    39   17   44 1
    40   17   45 1
    41   18   28 1
    42   18   46 1
    43   18   47 1
    44   18   48 1
    45   19   29 1
    46   19   49 1
    47   19   50 1
    48   19   51 1
    49   20   21 1
    50   20   22 1
    51   20   52 1
    52   20   53 1
    53   21   27 1
    54   21   54 1
    55   22   55 1
    56   24   30 2
    57   25   30 2
    58   27   56 1
