@<TRIPOS>MOLECULE
*****
   20    21     0     0     0
SMALL
NO_CHARGES

@<TRIPOS>ATOM
      1 C1          1.9948   -0.7338    0.0698 C.ar      1 <0>         0.0000
      2 C2          0.8721   -0.3148    0.7796 C.ar      1 <0>         0.0000
      3 C3          7.2657    0.0298    1.2771 C.2       1 <0>         0.0000
      4 C4          8.0566   -0.7399    0.4528 C.2       1 <0>         0.0000
      5 C5          3.1538   -1.1757    0.7268 C.ar      1 <0>         0.0000
      6 C6          0.9014   -0.3629    2.1703 C.ar      1 <0>         0.0000
      7 C7          3.1459   -1.2302    2.1243 C.ar      1 <0>         0.0000
      8 C8          2.0265   -0.8275    2.8507 C.ar      1 <0>         0.0000
      9 C9          5.6720   -1.1333    0.2886 C.2       1 <0>         0.0000
     10 C10         4.3217   -1.5901   -0.1130 C.2       1 <0>         0.0000
     11 N1          5.9223   -0.2005    1.1769 N.2       1 <0>         0.0000
     12 O1          4.1629   -2.2337   -1.1456 O.2       1 <0>         0.0000
     13 F1         -0.1669    0.0260    2.8886 F         1 <0>         0.0000
     14 F2          4.1820   -1.7338    2.8130 F         1 <0>         0.0000
     15 F3          2.0263   -0.9053    4.1902 F         1 <0>         0.0000
     16 S1          7.0876   -1.7929   -0.5046 S.3       1 <0>         0.0000
     17 H1          1.9948   -0.7162   -1.0150 H         1 <0>         0.0000
     18 H2         -0.0216    0.0443    0.2799 H         1 <0>         0.0000
     19 H3          7.6324    0.7769    1.9725 H         1 <0>         0.0000
     20 H4          9.1360   -0.7348    0.3703 H         1 <0>         0.0000
@<TRIPOS>BOND
     1    1    2 ar
     2    1    5 ar
     3    1   17 1
     4    2    6 ar
     5    2   18 1
     6    3    4 2
     7    3   11 1
     8    3   19 1
     9    4   16 1
    10    4   20 1
    11    5    7 ar
    12    5   10 1
    13    6    8 ar
    14    6   13 1
    15    7    8 ar
    16    7   14 1
    17    8   15 1
    18    9   10 1
    19    9   11 2
    20    9   16 1
    21   10   12 2
