@<TRIPOS>MOLECULE
*****
   25    26     0     0     0
SMALL
NO_CHARGES

@<TRIPOS>ATOM
      1 C1         -2.7116   -1.4522   -1.5971 C.ar      1 <0>         0.0000
      2 C2         -4.0498   -1.8484   -1.6227 C.ar      1 <0>         0.0000
      3 C3         -4.6904    0.2960   -0.6792 C.ar      1 <0>         0.0000
      4 C4         -2.3329   -0.1948   -1.1129 C.ar      1 <0>         0.0000
      5 C5         -3.3481    0.6549   -0.6505 C.ar      1 <0>         0.0000
      6 C6         -5.0314   -0.9660   -1.1681 C.ar      1 <0>         0.0000
      7 C7          2.4996   -0.1789   -1.4122 C.3       1 <0>         0.0000
      8 C8          1.6316   -0.8508   -2.4724 C.3       1 <0>         0.0000
      9 C9          0.8343    1.2691   -2.0869 C.3       1 <0>         0.0000
     10 C10        -0.5955    1.3905   -1.5790 C.3       1 <0>         0.0000
     11 O1          1.7054    0.9430   -1.0112 O.3       1 <0>         0.0000
     12 O2          0.9756    0.2674   -3.0858 O.3       1 <0>         0.0000
     13 O3         -1.0036    0.1136   -1.0604 O.3       1 <0>         0.0000
     14 F1         -3.0161    1.8707   -0.1453 F         1 <0>         0.0000
     15 Cl1        -6.7196   -1.4434   -1.2046 Cl        1 <0>         0.0000
     16 H1         -1.9315   -2.1155   -1.9577 H         1 <0>         0.0000
     17 H2         -4.3273   -2.8265   -2.0012 H         1 <0>         0.0000
     18 H3         -5.4391    0.9888   -0.3101 H         1 <0>         0.0000
     19 H4          2.6818   -0.8009   -0.5328 H         1 <0>         0.0000
     20 H5          3.4559    0.1626   -1.8300 H         1 <0>         0.0000
     21 H6          2.2015   -1.3737   -3.2437 H         1 <0>         0.0000
     22 H7          0.8953   -1.5248   -2.0209 H         1 <0>         0.0000
     23 H8          1.1280    2.2285   -2.5384 H         1 <0>         0.0000
     24 H9         -1.2427    1.6838   -2.4125 H         1 <0>         0.0000
     25 H10        -0.6415    2.1549   -0.7977 H         1 <0>         0.0000
@<TRIPOS>BOND
     1    1    2 ar
     2    1    4 ar
     3    1   16 1
     4    2    6 ar
     5    2   17 1
     6    3    5 ar
     7    3    6 ar
     8    3   18 1
     9    4    5 ar
    10    4   13 1
    11    5   14 1
    12    6   15 1
    13    7    8 1
    14    7   11 1
    15    7   19 1
    16    7   20 1
    17    8   12 1
    18    8   21 1
    19    8   22 1
    20    9   10 1
    21    9   12 1
    22    9   11 1
    23    9   23 1
    24   10   13 1
    25   10   24 1
    26   10   25 1
