@<TRIPOS>MOLECULE
*****
   27    27     0     0     0
SMALL
NO_CHARGES

@<TRIPOS>ATOM
      1 C1          0.7428    1.0103   -0.3140 C.2       1 <0>         0.0000
      2 C2          0.7065   -0.3496   -0.2670 C.2       1 <0>         0.0000
      3 C3          1.8645    1.8443   -0.7258 C.2       1 <0>         0.0000
      4 C4         -1.6146    0.1619    0.1892 C.3       1 <0>         0.0000
      5 C5         -0.5521   -0.9416    0.3223 C.3       1 <0>         0.0000
      6 C6         -0.9779   -2.2686   -0.3130 C.3       1 <0>         0.0000
      7 C7          6.4460    1.4994   -2.4829 C.3       1 <0>         0.0000
      8 C8          5.1571    0.8081   -2.0225 C.3       1 <0>         0.0000
      9 C9          4.1077    1.8198   -1.5909 C.3       1 <0>         0.0000
     10 O1          1.9033    3.0601   -0.6878 O.2       1 <0>         0.0000
     11 O2          1.6769   -1.2116   -0.6257 O.3       1 <0>         0.0000
     12 O3          2.9281    1.0834   -1.1730 O.3       1 <0>         0.0000
     13 S1         -0.7459    1.7867    0.3055 S.3       1 <0>         0.0000
     14 H1         -2.1013    0.0990   -0.7898 H         1 <0>         0.0000
     15 H2         -2.3758    0.1051    0.9692 H         1 <0>         0.0000
     16 H3         -0.3409   -1.1086    1.3901 H         1 <0>         0.0000
     17 H4         -1.1795   -2.1416   -1.3817 H         1 <0>         0.0000
     18 H5         -1.8881   -2.6439    0.1655 H         1 <0>         0.0000
     19 H6         -0.1946   -3.0228   -0.2028 H         1 <0>         0.0000
     20 H7          6.2597    2.1619   -3.3353 H         1 <0>         0.0000
     21 H8          6.8828    2.1031   -1.6798 H         1 <0>         0.0000
     22 H9          7.1938    0.7624   -2.7905 H         1 <0>         0.0000
     23 H10         5.3718    0.1343   -1.1845 H         1 <0>         0.0000
     24 H11         4.7505    0.1930   -2.8338 H         1 <0>         0.0000
     25 H12         4.4511    2.4326   -0.7528 H         1 <0>         0.0000
     26 H13         3.8270    2.4906   -2.4078 H         1 <0>         0.0000
     27 H14         2.4411   -0.6790   -0.9373 H         1 <0>         0.0000
@<TRIPOS>BOND
     1    1    2 2
     2    1    3 1
     3    1   13 1
     4    2    5 1
     5    2   11 1
     6    3   10 2
     7    3   12 1
     8    4    5 1
     9    4   13 1
    10    4   14 1
    11    4   15 1
    12    5    6 1
    13    5   16 1
    14    6   17 1
    15    6   18 1
    16    6   19 1
    17    7    8 1
    18    7   20 1
    19    7   21 1
    20    7   22 1
    21    8    9 1
    22    8   23 1
    23    8   24 1
    24    9   12 1
    25    9   25 1
    26    9   26 1
    27   11   27 1
