@<TRIPOS>MOLECULE
*****
   27    27     0     0     0
SMALL
NO_CHARGES

@<TRIPOS>ATOM
      1 C1          0.9365    0.5681   -0.0549 C.2       1 <0>         0.0000
      2 C2          0.3017   -0.4044   -0.7702 C.2       1 <0>         0.0000
      3 C3          1.5625    1.6930   -0.7201 C.2       1 <0>         0.0000
      4 C4          0.2742   -1.4054    1.4305 C.3       1 <0>         0.0000
      5 C5         -0.4077   -1.4520    0.0487 C.3       1 <0>         0.0000
      6 C6         -1.9156   -1.1388    0.1034 C.3       1 <0>         0.0000
      7 C7          5.0460    2.9246    0.3428 C.3       1 <0>         0.0000
      8 C8          4.2066    3.3986   -0.8485 C.3       1 <0>         0.0000
      9 C9          2.7673    3.7380   -0.4764 C.3       1 <0>         0.0000
     10 O1          1.5956    1.8064   -1.9565 O.2       1 <0>         0.0000
     11 O2          0.1992   -0.4610   -2.1038 O.3       1 <0>         0.0000
     12 O3          2.0864    2.6001    0.1209 O.3       1 <0>         0.0000
     13 S1          0.8447    0.3335    1.7155 S.3       1 <0>         0.0000
     14 H1         -0.4024   -1.6908    2.2385 H         1 <0>         0.0000
     15 H2          1.1521   -2.0569    1.4512 H         1 <0>         0.0000
     16 H3         -0.2618   -2.4370   -0.4078 H         1 <0>         0.0000
     17 H4         -2.0899   -0.1802    0.6017 H         1 <0>         0.0000
     18 H5         -2.4456   -1.9193    0.6586 H         1 <0>         0.0000
     19 H6         -2.3353   -1.0882   -0.9050 H         1 <0>         0.0000
     20 H7          5.0944    3.6922    1.1239 H         1 <0>         0.0000
     21 H8          4.6207    2.0215    0.7904 H         1 <0>         0.0000
     22 H9          6.0707    2.6978    0.0316 H         1 <0>         0.0000
     23 H10         4.1981    2.6421   -1.6395 H         1 <0>         0.0000
     24 H11         4.6475    4.3039   -1.2855 H         1 <0>         0.0000
     25 H12         2.7291    4.5032    0.3026 H         1 <0>         0.0000
     26 H13         2.1992    4.0720   -1.3469 H         1 <0>         0.0000
     27 H14         0.6723    0.3407   -2.4517 H         1 <0>         0.0000
@<TRIPOS>BOND
     1    1    2 2
     2    1    3 1
     3    1   13 1
     4    2    5 1
     5    2   11 1
     6    3   10 2
     7    3   12 1
     8    4    5 1
     9    4   13 1
    10    4   14 1
    11    4   15 1
    12    5    6 1
    13    5   16 1
    14    6   17 1
    15    6   18 1
    16    6   19 1
    17    7    8 1
    18    7   20 1
    19    7   21 1
    20    7   22 1
    21    8    9 1
    22    8   23 1
    23    8   24 1
    24    9   12 1
    25    9   25 1
    26    9   26 1
    27   11   27 1
