@<TRIPOS>MOLECULE
*****
   27    27     0     0     0
SMALL
NO_CHARGES

@<TRIPOS>ATOM
      1 C1          0.4886   -0.6181    0.1946 C.2       1 <0>         0.0000
      2 C2          1.0046    1.8434    0.0913 C.2       1 <0>         0.0000
      3 C3         -1.3790   -0.6828    1.7829 C.3       1 <0>         0.0000
      4 C4          0.8249    0.6468    1.0154 C.3       1 <0>         0.0000
      5 C5         -0.9522   -1.0821    0.3686 C.3       1 <0>         0.0000
      6 C6         -1.8322   -0.4483   -0.7284 C.3       1 <0>         0.0000
      7 C7          4.5226    2.9727   -0.9544 C.3       1 <0>         0.0000
      8 C8          3.1770    3.5627   -1.3900 C.3       1 <0>         0.0000
      9 C9          2.2383    3.8588   -0.2257 C.3       1 <0>         0.0000
     10 O1          1.3223   -1.1632   -0.4974 O.2       1 <0>         0.0000
     11 O2          0.3565    2.0356   -0.9187 O.2       1 <0>         0.0000
     12 O3          1.9627    2.6633    0.5619 O.3       1 <0>         0.0000
     13 S1         -0.5757    0.9410    2.1707 S.3       1 <0>         0.0000
     14 H1         -2.4589   -0.5445    1.8689 H         1 <0>         0.0000
     15 H2         -1.0588   -1.4242    2.5196 H         1 <0>         0.0000
     16 H3          1.7512    0.4711    1.5659 H         1 <0>         0.0000
     17 H4         -0.9614   -2.1701    0.2536 H         1 <0>         0.0000
     18 H5         -1.8445    0.6403   -0.6462 H         1 <0>         0.0000
     19 H6         -2.8557   -0.8254   -0.6356 H         1 <0>         0.0000
     20 H7         -1.4529   -0.7087   -1.7198 H         1 <0>         0.0000
     21 H8          5.0516    3.6494   -0.2732 H         1 <0>         0.0000
     22 H9          4.3866    2.0175   -0.4387 H         1 <0>         0.0000
     23 H10         5.1679    2.7965   -1.8206 H         1 <0>         0.0000
     24 H11         2.6721    2.8915   -2.0914 H         1 <0>         0.0000
     25 H12         3.3351    4.5103   -1.9209 H         1 <0>         0.0000
     26 H13         2.6965    4.5432    0.4921 H         1 <0>         0.0000
     27 H14         1.2897    4.2726   -0.5742 H         1 <0>         0.0000
@<TRIPOS>BOND
     1    1    4 1
     2    1    5 1
     3    1   10 2
     4    2    4 1
     5    2   11 2
     6    2   12 1
     7    3    5 1
     8    3   13 1
     9    3   14 1
    10    3   15 1
    11    4   13 1
    12    4   16 1
    13    5    6 1
    14    5   17 1
    15    6   18 1
    16    6   19 1
    17    6   20 1
    18    7    8 1
    19    7   21 1
    20    7   22 1
    21    7   23 1
    22    8    9 1
    23    8   24 1
    24    8   25 1
    25    9   12 1
    26    9   26 1
    27    9   27 1
