@<TRIPOS>MOLECULE
*****
   28    30     0     0     0
SMALL
NO_CHARGES

@<TRIPOS>ATOM
      1 C1         -0.6998    1.8211   -0.6925 C.ar      1 <0>         0.0000
      2 C2         -0.9373    0.6486    0.0563 C.ar      1 <0>         0.0000
      3 C3         -1.7551    2.5394   -1.2390 C.ar      1 <0>         0.0000
      4 C4         -2.2318    0.1809    0.2673 C.ar      1 <0>         0.0000
      5 C5        -11.8265    2.3996   -1.5637 C.ar      1 <0>         0.0000
      6 C6        -11.3624    1.0931   -1.7342 C.ar      1 <0>         0.0000
      7 C7         -9.5654    3.1106   -1.0281 C.ar      1 <0>         0.0000
      8 C8         -3.0717    2.0818   -1.0358 C.ar      1 <0>         0.0000
      9 C9         -9.0881    1.7969   -1.2005 C.ar      1 <0>         0.0000
     10 C10        -3.3000    0.9020   -0.2809 C.ar      1 <0>         0.0000
     11 C11       -10.9163    3.3962   -1.2084 C.ar      1 <0>         0.0000
     12 C12       -10.0147    0.7910   -1.5464 C.ar      1 <0>         0.0000
     13 C13        -4.3148    2.6377   -1.4905 C.2       1 <0>         0.0000
     14 C14        -5.4278    1.9265   -1.1057 C.2       1 <0>         0.0000
     15 C15        -6.8120    2.2205   -1.3971 C.2       1 <0>         0.0000
     16 N1         -7.7528    1.4542   -0.9705 N.2       1 <0>         0.0000
     17 S1         -5.0034    0.5117   -0.1498 S.3       1 <0>         0.0000
     18 Cl1       -11.4837    5.0404   -0.9681 Cl        1 <0>         0.0000
     19 Cl2        -9.4642   -0.8506   -1.7862 Cl        1 <0>         0.0000
     20 Cl3        -4.3784    4.0928   -2.4460 Cl        1 <0>         0.0000
     21 H1          0.3205    2.1627   -0.8414 H         1 <0>         0.0000
     22 H2         -0.0976    0.1011    0.4754 H         1 <0>         0.0000
     23 H3         -1.5790    3.4420   -1.8167 H         1 <0>         0.0000
     24 H4         -2.4084   -0.7226    0.8444 H         1 <0>         0.0000
     25 H5        -12.8775    2.6338   -1.6962 H         1 <0>         0.0000
     26 H6        -12.0526    0.3034   -2.0135 H         1 <0>         0.0000
     27 H7         -8.8815    3.8915   -0.7121 H         1 <0>         0.0000
     28 H8         -7.0005    3.1112   -2.0089 H         1 <0>         0.0000
@<TRIPOS>BOND
     1    1    2 ar
     2    1    3 ar
     3    1   21 1
     4    2    4 ar
     5    2   22 1
     6    3    8 ar
     7    3   23 1
     8    4   10 ar
     9    4   24 1
    10    5    6 ar
    11    5   11 ar
    12    5   25 1
    13    6   12 ar
    14    6   26 1
    15    7    9 ar
    16    7   11 ar
    17    7   27 1
    18    8   10 ar
    19    8   13 1
    20    9   12 ar
    21    9   16 1
    22   10   17 1
    23   11   18 1
    24   12   19 1
    25   13   14 2
    26   13   20 1
    27   14   15 1
    28   14   17 1
    29   15   16 2
    30   15   28 1
