@<TRIPOS>MOLECULE
*****
   49    51     0     0     0
SMALL
NO_CHARGES

@<TRIPOS>ATOM
      1 C1         -2.7211   -0.3618    4.1331 C.ar      1 <0>         0.0000
      2 C2         -0.5564   -0.9554    4.9759 C.ar      1 <0>         0.0000
      3 C3         -0.8833   -0.6912    2.5902 C.ar      1 <0>         0.0000
      4 C4         -1.9015   -0.6516    5.2239 C.ar      1 <0>         0.0000
      5 C5         -2.2353   -0.3764    2.8183 C.ar      1 <0>         0.0000
      6 C6         -0.0323   -0.9810    3.6816 C.ar      1 <0>         0.0000
      7 C7          0.1731   -2.0526    0.6374 C.2       1 <0>         0.0000
      8 C8          0.7445    0.2934    0.8132 C.2       1 <0>         0.0000
      9 C9          0.9160   -1.8703   -1.8211 C.3       1 <0>         0.0000
     10 C10         1.8725    0.3100   -1.4721 C.3       1 <0>         0.0000
     11 C11        -0.3398   -0.7195    1.1827 C.3       1 <0>         0.0000
     12 C12         1.3415   -1.8101   -0.3220 C.3       1 <0>         0.0000
     13 C13         1.8083   -0.3552   -0.0836 C.3       1 <0>         0.0000
     14 C14         0.7610   -0.4083   -2.2528 C.3       1 <0>         0.0000
     15 C15        -2.4475   -0.6681    6.6331 C.3       1 <0>         0.0000
     16 C16        -3.0032    1.4623    1.2387 C.3       1 <0>         0.0000
     17 C17         2.2693   -1.6507    4.6779 C.3       1 <0>         0.0000
     18 C18        -0.8993    1.3355   -2.1892 C.3       1 <0>         0.0000
     19 C19        -3.1835    0.0028    1.6973 C.3       1 <0>         0.0000
     20 C20         1.4349   -1.2989    3.4427 C.3       1 <0>         0.0000
     21 O1         -0.2894   -3.1471    0.8898 O.2       1 <0>         0.0000
     22 O2          0.7566    1.4653    1.1372 O.2       1 <0>         0.0000
     23 O3         -0.5453    0.0037   -1.8313 O.3       1 <0>         0.0000
     24 H1         -3.7682   -0.1171    4.3031 H         1 <0>         0.0000
     25 H2          0.0880   -1.1760    5.8214 H         1 <0>         0.0000
     26 H3          1.7100   -2.3393   -2.4096 H         1 <0>         0.0000
     27 H4         -0.0019   -2.4402   -1.9809 H         1 <0>         0.0000
     28 H5          1.7574    1.3948   -1.4193 H         1 <0>         0.0000
     29 H6          2.8371    0.1015   -1.9483 H         1 <0>         0.0000
     30 H7         -1.1370   -0.4728    0.4738 H         1 <0>         0.0000
     31 H8          2.1049   -2.5620   -0.1094 H         1 <0>         0.0000
     32 H9          2.7635   -0.2812    0.4447 H         1 <0>         0.0000
     33 H10         0.8527   -0.2745   -3.3399 H         1 <0>         0.0000
     34 H11        -2.6528   -1.6941    6.9624 H         1 <0>         0.0000
     35 H12        -1.7349   -0.2352    7.3427 H         1 <0>         0.0000
     36 H13        -3.3825   -0.1052    6.7066 H         1 <0>         0.0000
     37 H14        -3.2130    2.1497    2.0646 H         1 <0>         0.0000
     38 H15        -3.6855    1.6994    0.4143 H         1 <0>         0.0000
     39 H16        -1.9785    1.6594    0.9112 H         1 <0>         0.0000
     40 H17         2.3028   -0.8237    5.3943 H         1 <0>         0.0000
     41 H18         3.2994   -1.8721    4.3808 H         1 <0>         0.0000
     42 H19         1.8753   -2.5325    5.1930 H         1 <0>         0.0000
     43 H20        -1.9587    1.4508   -1.9514 H         1 <0>         0.0000
     44 H21        -0.7500    1.5069   -3.2647 H         1 <0>         0.0000
     45 H22        -0.3291    2.0803   -1.6207 H         1 <0>         0.0000
     46 H23        -3.0691   -0.6744    0.8432 H         1 <0>         0.0000
     47 H24        -4.2121   -0.1360    2.0457 H         1 <0>         0.0000
     48 H25         1.5067   -2.1348    2.7372 H         1 <0>         0.0000
     49 H26         1.9037   -0.4383    2.9493 H         1 <0>         0.0000
@<TRIPOS>BOND
     1    1    4 ar
     2    1    5 ar
     3    1   24 1
     4    2    4 ar
     5    2    6 ar
     6    2   25 1
     7    3    5 ar
     8    3    6 ar
     9    3   11 1
    10    4   15 1
    11    5   19 1
    12    6   20 1
    13    7   11 1
    14    7   12 1
    15    7   21 2
    16    8   11 1
    17    8   13 1
    18    8   22 2
    19    9   12 1
    20    9   14 1
    21    9   26 1
    22    9   27 1
    23   10   13 1
    24   10   14 1
    25   10   28 1
    26   10   29 1
    27   11   30 1
    28   12   13 1
    29   12   31 1
    30   13   32 1
    31   14   23 1
    32   14   33 1
    33   15   34 1
    34   15   35 1
    35   15   36 1
    36   16   19 1
    37   16   37 1
    38   16   38 1
    39   16   39 1
    40   17   20 1
    41   17   40 1
    42   17   41 1
    43   17   42 1
    44   18   23 1
    45   18   43 1
    46   18   44 1
    47   18   45 1
    48   19   46 1
    49   19   47 1
    50   20   48 1
    51   20   49 1
