@<TRIPOS>MOLECULE
*****
   35    36     0     0     0
SMALL
NO_CHARGES

@<TRIPOS>ATOM
      1 C1         -0.1207    0.5943   -0.6969 C.1       1 <0>         0.0000
      2 C2         -1.0379    0.9444   -1.4201 C.1       1 <0>         0.0000
      3 C3          2.1767   -0.2574   -0.3925 C.ar      1 <0>         0.0000
      4 C4          0.8213    0.2026    1.5504 C.ar      1 <0>         0.0000
      5 C5          0.9569    0.1878    0.1513 C.ar      1 <0>         0.0000
      6 C6          3.2360   -0.6549    0.4237 C.ar      1 <0>         0.0000
      7 C7          1.8654   -0.1915    2.3897 C.ar      1 <0>         0.0000
      8 C8          3.1030   -0.6006    1.8350 C.ar      1 <0>         0.0000
      9 C9          4.1608   -2.5850    3.0567 C.2       1 <0>         0.0000
     10 C10        -2.8460    0.2599   -3.1141 C.3       1 <0>         0.0000
     11 C11        -3.5541    0.8587   -1.9236 C.3       1 <0>         0.0000
     12 C12        -2.1427    1.3192   -2.2709 C.3       1 <0>         0.0000
     13 C13         4.5162   -1.1570   -0.2074 C.3       1 <0>         0.0000
     14 C14         2.0571    1.1864    4.5174 C.3       1 <0>         0.0000
     15 C15         4.2420   -1.0286    2.7186 C.3       1 <0>         0.0000
     16 C16         1.6470   -0.1591    3.8906 C.3       1 <0>         0.0000
     17 O1          3.5485   -2.8620    4.1209 O.co2     1 <0>         0.0000
     18 O2          4.7114   -3.3422    2.2153 O.co2     1 <0>         0.0000
     19 H1          2.2852   -0.2968   -1.4741 H         1 <0>         0.0000
     20 H2         -0.1247    0.5212    1.9840 H         1 <0>         0.0000
     21 H3         -2.4738   -0.7556   -3.0269 H         1 <0>         0.0000
     22 H4         -3.1746    0.5480   -4.1092 H         1 <0>         0.0000
     23 H5         -4.3677    1.5566   -2.1033 H         1 <0>         0.0000
     24 H6         -3.6600    0.2466   -1.0340 H         1 <0>         0.0000
     25 H7         -2.0748    2.3054   -2.7275 H         1 <0>         0.0000
     26 H8          5.3404   -0.4472   -0.0517 H         1 <0>         0.0000
     27 H9          4.8136   -2.1082    0.2464 H         1 <0>         0.0000
     28 H10         4.3894   -1.2877   -1.2875 H         1 <0>         0.0000
     29 H11         3.1166    1.3976    4.3377 H         1 <0>         0.0000
     30 H12         1.8951    1.1800    5.6026 H         1 <0>         0.0000
     31 H13         1.4786    2.0140    4.0890 H         1 <0>         0.0000
     32 H14         5.1967   -0.8374    2.2240 H         1 <0>         0.0000
     33 H15         4.2283   -0.4770    3.6598 H         1 <0>         0.0000
     34 H16         0.5822   -0.3294    4.0929 H         1 <0>         0.0000
     35 H17         2.1925   -0.9855    4.3560 H         1 <0>         0.0000
@<TRIPOS>BOND
     1    1    2 3
     2    1    5 1
     3    2   12 1
     4    3    5 ar
     5    3    6 ar
     6    3   19 1
     7    4    5 ar
     8    4    7 ar
     9    4   20 1
    10    6    8 ar
    11    6   13 1
    12    7    8 ar
    13    7   16 1
    14    8   15 1
    15    9   15 1
    16    9   17 1
    17    9   18 2
    18   10   11 1
    19   10   12 1
    20   10   21 1
    21   10   22 1
    22   11   12 1
    23   11   23 1
    24   11   24 1
    25   12   25 1
    26   13   26 1
    27   13   27 1
    28   13   28 1
    29   14   16 1
    30   14   29 1
    31   14   30 1
    32   14   31 1
    33   15   32 1
    34   15   33 1
    35   16   34 1
    36   16   35 1
