@<TRIPOS>MOLECULE
*****
   39    41     0     0     0
SMALL
NO_CHARGES

@<TRIPOS>ATOM
      1 C1          0.8445   -3.0981   -1.5534 C.ar      1 <0>         0.0000
      2 C2          1.2542   -4.3855   -1.9299 C.ar      1 <0>         0.0000
      3 C3          2.6761   -2.9769    0.0125 C.ar      1 <0>         0.0000
      4 C4          1.5497   -2.3886   -0.5837 C.ar      1 <0>         0.0000
      5 C5          2.3754   -4.9738   -1.3448 C.ar      1 <0>         0.0000
      6 C6          3.0974   -4.2553   -0.3570 C.ar      1 <0>         0.0000
      7 C7          1.2274    0.1140    1.8611 C.2       1 <0>         0.0000
      8 C8          7.3070   -4.5026    2.1812 C.3       1 <0>         0.0000
      9 C9          7.3237   -5.1573    0.8162 C.3       1 <0>         0.0000
     10 C10        -0.3060   -1.0276    0.5244 C.3       1 <0>         0.0000
     11 C11         6.0459   -5.1268    1.6213 C.3       1 <0>         0.0000
     12 C12         1.0845   -1.0050   -0.1701 C.3       1 <0>         0.0000
     13 C13         1.1250   -0.0055   -1.3300 C.3       1 <0>         0.0000
     14 C14         2.1641   -6.9673   -2.6355 C.3       1 <0>         0.0000
     15 C15         4.9228   -4.2254    1.1943 C.3       1 <0>         0.0000
     16 N1         -0.1133   -0.0086    1.5459 N.am      1 <0>         0.0000
     17 O1          1.7206    0.6654    2.8203 O.2       1 <0>         0.0000
     18 O2          1.9612   -0.4887    0.8736 O.3       1 <0>         0.0000
     19 O3          2.8554   -6.2165   -1.6454 O.3       1 <0>         0.0000
     20 O4          4.1814   -4.8939    0.1638 O.3       1 <0>         0.0000
     21 H1         -0.0334   -2.6681   -2.0289 H         1 <0>         0.0000
     22 H2          0.6883   -4.9184   -2.6854 H         1 <0>         0.0000
     23 H3          3.2139   -2.4162    0.7645 H         1 <0>         0.0000
     24 H4          7.8015   -5.0095    3.0042 H         1 <0>         0.0000
     25 H5          7.3619   -3.4182    2.2267 H         1 <0>         0.0000
     26 H6          7.3801   -4.5137   -0.0573 H         1 <0>         0.0000
     27 H7          7.8338   -6.1095    0.7072 H         1 <0>         0.0000
     28 H8         -1.1053   -0.7618   -0.1729 H         1 <0>         0.0000
     29 H9         -0.5164   -2.0149    0.9525 H         1 <0>         0.0000
     30 H10         5.7255   -6.0663    2.0644 H         1 <0>         0.0000
     31 H11         0.7578    0.9716   -1.0010 H         1 <0>         0.0000
     32 H12         0.5061   -0.3528   -2.1617 H         1 <0>         0.0000
     33 H13         2.1526    0.1024   -1.6853 H         1 <0>         0.0000
     34 H14         2.7047   -7.9105   -2.7245 H         1 <0>         0.0000
     35 H15         2.1686   -6.4533   -3.6053 H         1 <0>         0.0000
     36 H16         1.1278   -7.1698   -2.3358 H         1 <0>         0.0000
     37 H17         5.3188   -3.2752    0.8109 H         1 <0>         0.0000
     38 H18         4.2569   -4.0023    2.0388 H         1 <0>         0.0000
     39 H19        -0.7633    0.1027    2.3135 H         1 <0>         0.0000
@<TRIPOS>BOND
     1    1    2 ar
     2    1    4 ar
     3    1   21 1
     4    2    5 ar
     5    2   22 1
     6    3    4 ar
     7    3    6 ar
     8    3   23 1
     9    4   12 1
    10    5    6 ar
    11    5   19 1
    12    6   20 1
    13    7   16 am
    14    7   17 2
    15    7   18 1
    16    8    9 1
    17    8   11 1
    18    8   24 1
    19    8   25 1
    20    9   11 1
    21    9   26 1
    22    9   27 1
    23   10   12 1
    24   10   16 1
    25   10   28 1
    26   10   29 1
    27   11   15 1
    28   11   30 1
    29   12   13 1
    30   12   18 1
    31   13   31 1
    32   13   32 1
    33   13   33 1
    34   14   19 1
    35   14   34 1
    36   14   35 1
    37   14   36 1
    38   15   20 1
    39   15   37 1
    40   15   38 1
    41   16   39 1
