@<TRIPOS>MOLECULE
*****
   32    34     0     0     0
SMALL
NO_CHARGES

@<TRIPOS>ATOM
      1 C1          2.1705   -0.6546   -0.0249 C.ar      1 <0>         0.0000
      2 C2          2.6120   -2.0221    1.9120 C.ar      1 <0>         0.0000
      3 C3          1.0803   -0.0729    0.6242 C.ar      1 <0>         0.0000
      4 C4          1.5240   -1.4462    2.5743 C.ar      1 <0>         0.0000
      5 C5          6.4149   -4.8918   -2.3798 C.2       1 <0>         0.0000
      6 C6          5.0640   -3.5557   -3.2841 C.2       1 <0>         0.0000
      7 C7          2.9488   -1.6353    0.6097 C.ar      1 <0>         0.0000
      8 C8          0.7642   -0.4752    1.9231 C.ar      1 <0>         0.0000
      9 C9          5.9339   -0.3716    0.1904 C.3       1 <0>         0.0000
     10 C10         6.5830   -1.4142   -0.7159 C.3       1 <0>         0.0000
     11 C11         5.0963   -1.2443   -0.6790 C.3       1 <0>         0.0000
     12 C12         3.5815   -3.1826   -1.2478 C.3       1 <0>         0.0000
     13 C13         4.1305   -2.2913   -0.1039 C.3       1 <0>         0.0000
     14 N1          6.1679   -4.2442   -3.5523 N.2       1 <0>         0.0000
     15 N2          5.5310   -4.6502   -1.4150 N.2       1 <0>         0.0000
     16 N3          4.6559   -3.7916   -2.0180 N.pl3     1 <0>         0.0000
     17 O1          4.8297   -3.0864    0.8435 O.3       1 <0>         0.0000
     18 F1          4.5547   -0.6255   -1.8166 F         1 <0>         0.0000
     19 Cl1        -0.6064    0.2536    2.7459 Cl        1 <0>         0.0000
     20 H1          2.4159   -0.3229   -1.0279 H         1 <0>         0.0000
     21 H2          3.2111   -2.7746    2.4106 H         1 <0>         0.0000
     22 H3          0.4847    0.6871    0.1285 H         1 <0>         0.0000
     23 H4          1.2707   -1.7489    3.5856 H         1 <0>         0.0000
     24 H5          7.2548   -5.5574   -2.2279 H         1 <0>         0.0000
     25 H6          4.5410   -2.8880   -3.9560 H         1 <0>         0.0000
     26 H7          5.9060   -0.5697    1.2571 H         1 <0>         0.0000
     27 H8          6.0163    0.6712   -0.0982 H         1 <0>         0.0000
     28 H9          7.0755   -1.0583   -1.6152 H         1 <0>         0.0000
     29 H10         7.0208   -2.2933   -0.2582 H         1 <0>         0.0000
     30 H11         2.9656   -3.9702   -0.8074 H         1 <0>         0.0000
     31 H12         2.9723   -2.5975   -1.9353 H         1 <0>         0.0000
     32 H13         5.2946   -3.7982    0.3543 H         1 <0>         0.0000
@<TRIPOS>BOND
     1    1    3 ar
     2    1    7 ar
     3    1   20 1
     4    2    4 ar
     5    2    7 ar
     6    2   21 1
     7    3    8 ar
     8    3   22 1
     9    4    8 ar
    10    4   23 1
    11    5   14 1
    12    5   15 2
    13    5   24 1
    14    6   14 2
    15    6   16 1
    16    6   25 1
    17    7   13 1
    18    8   19 1
    19    9   10 1
    20    9   11 1
    21    9   26 1
    22    9   27 1
    23   10   11 1
    24   10   28 1
    25   10   29 1
    26   11   13 1
    27   11   18 1
    28   12   13 1
    29   12   16 1
    30   12   30 1
    31   12   31 1
    32   13   17 1
    33   15   16 1
    34   17   32 1
