@<TRIPOS>MOLECULE
*****
   37    39     0     0     0
SMALL
NO_CHARGES

@<TRIPOS>ATOM
      1 C1          0.9556   -2.5708    0.9668 C.1       1 <0>         0.0000
      2 C2         -4.3620   -0.3411    3.0556 C.ar      1 <0>         0.0000
      3 C3         -4.5933    1.0349    3.1624 C.ar      1 <0>         0.0000
      4 C4         -3.2834   -0.7940    2.3019 C.ar      1 <0>         0.0000
      5 C5         -3.7376    1.9383    2.5272 C.ar      1 <0>         0.0000
      6 C6          1.2524   -1.7327   -0.1456 C.2       1 <0>         0.0000
      7 C7         -2.4019    0.0968    1.6514 C.ar      1 <0>         0.0000
      8 C8          2.3109   -2.0246   -1.0794 C.2       1 <0>         0.0000
      9 C9         -2.6421    1.4900    1.7837 C.ar      1 <0>         0.0000
     10 C10         2.4514   -1.0486   -2.0307 C.2       1 <0>         0.0000
     11 C11         0.5949   -0.5300   -0.4127 C.2       1 <0>         0.0000
     12 C12        -1.3406   -0.5091    0.8537 C.2       1 <0>         0.0000
     13 C13         3.1943   -3.2458   -1.0342 C.3       1 <0>         0.0000
     14 C14         3.4485   -1.0751   -3.1564 C.3       1 <0>         0.0000
     15 C15         3.9462   -3.4342   -2.3616 C.3       1 <0>         0.0000
     16 C16         4.5469   -2.1122   -2.8600 C.3       1 <0>         0.0000
     17 C17        -0.6447    2.7622    1.8143 C.3       1 <0>         0.0000
     18 N1          0.7313   -3.2765    1.8701 N.1       1 <0>         0.0000
     19 N2         -0.4035    0.1424    0.2500 N.2       1 <0>         0.0000
     20 O1         -1.8756    2.4342    1.1518 O.3       1 <0>         0.0000
     21 S1          1.3130    0.2545   -1.7996 S.3       1 <0>         0.0000
     22 H1         -5.0200   -1.0507    3.5487 H         1 <0>         0.0000
     23 H2         -5.4375    1.4052    3.7384 H         1 <0>         0.0000
     24 H3         -3.1042   -1.8625    2.2062 H         1 <0>         0.0000
     25 H4         -3.9052    3.0097    2.5908 H         1 <0>         0.0000
     26 H5         -1.4006   -1.6012    0.7836 H         1 <0>         0.0000
     27 H6          3.9102   -3.1410   -0.2079 H         1 <0>         0.0000
     28 H7          2.5953   -4.1334   -0.8027 H         1 <0>         0.0000
     29 H8          2.9392   -1.3305   -4.0956 H         1 <0>         0.0000
     30 H9          3.8925   -0.0842   -3.3044 H         1 <0>         0.0000
     31 H10         4.7329   -4.1855   -2.2356 H         1 <0>         0.0000
     32 H11         3.2534   -3.8223   -3.1191 H         1 <0>         0.0000
     33 H12         5.1434   -2.2791   -3.7632 H         1 <0>         0.0000
     34 H13         5.2250   -1.7115   -2.0963 H         1 <0>         0.0000
     35 H14        -0.1379    3.4824    1.1700 H         1 <0>         0.0000
     36 H15        -0.0119    1.8792    1.9347 H         1 <0>         0.0000
     37 H16        -0.8511    3.2177    2.7912 H         1 <0>         0.0000
@<TRIPOS>BOND
     1    1    6 1
     2    1   18 3
     3    2    3 ar
     4    2    4 ar
     5    2   22 1
     6    3    5 ar
     7    3   23 1
     8    4    7 ar
     9    4   24 1
    10    5    9 ar
    11    5   25 1
    12    6    8 1
    13    6   11 2
    14    7    9 ar
    15    7   12 1
    16    8   10 2
    17    8   13 1
    18    9   20 1
    19   10   14 1
    20   10   21 1
    21   11   19 1
    22   11   21 1
    23   12   19 2
    24   12   26 1
    25   13   15 1
    26   13   27 1
    27   13   28 1
    28   14   16 1
    29   14   29 1
    30   14   30 1
    31   15   16 1
    32   15   31 1
    33   15   32 1
    34   16   33 1
    35   16   34 1
    36   17   20 1
    37   17   35 1
    38   17   36 1
    39   17   37 1
