@<TRIPOS>MOLECULE
*****
   32    34     0     0     0
SMALL
NO_CHARGES

@<TRIPOS>ATOM
      1 C1          2.0984   -0.6849    0.1129 C.ar      1 <0>         0.0000
      2 C2          3.3626   -1.8372    1.8081 C.ar      1 <0>         0.0000
      3 C3          0.9636   -0.7147    0.9242 C.ar      1 <0>         0.0000
      4 C4          2.2357   -1.8759    2.6335 C.ar      1 <0>         0.0000
      5 C5          3.4698   -5.1168   -1.1645 C.2       1 <0>         0.0000
      6 C6          2.4519   -3.5300   -2.0974 C.2       1 <0>         0.0000
      7 C7          3.3104   -1.2484    0.5405 C.ar      1 <0>         0.0000
      8 C8          1.0418   -1.3152    2.1820 C.ar      1 <0>         0.0000
      9 C9          5.9369    0.8401    0.5751 C.3       1 <0>         0.0000
     10 C10         6.5412    0.4946   -0.7871 C.3       1 <0>         0.0000
     11 C11         5.1072    0.1972   -0.4812 C.3       1 <0>         0.0000
     12 C12         4.2544   -1.7621   -1.7633 C.3       1 <0>         0.0000
     13 C13         4.5628   -1.2255   -0.3427 C.3       1 <0>         0.0000
     14 N1          2.2937   -4.8092   -1.7778 N.2       1 <0>         0.0000
     15 N2          4.3396   -4.1123   -1.0968 N.2       1 <0>         0.0000
     16 N3          3.6707   -3.0929   -1.7124 N.pl3     1 <0>         0.0000
     17 O1          5.6199   -1.9830    0.2316 O.3       1 <0>         0.0000
     18 F1          4.1777    1.0244   -1.1153 F         1 <0>         0.0000
     19 Cl1        -0.3832   -1.3626    3.2077 Cl        1 <0>         0.0000
     20 H1          2.0282   -0.1965   -0.8534 H         1 <0>         0.0000
     21 H2          4.2960   -2.2680    2.1528 H         1 <0>         0.0000
     22 H3          0.0302   -0.2756    0.5861 H         1 <0>         0.0000
     23 H4          2.2849   -2.3376    3.6148 H         1 <0>         0.0000
     24 H5          3.6978   -6.0949   -0.7614 H         1 <0>         0.0000
     25 H6          1.7295   -2.8975   -2.5967 H         1 <0>         0.0000
     26 H7          6.2221    0.2316    1.4263 H         1 <0>         0.0000
     27 H8          5.7294    1.8850    0.7826 H         1 <0>         0.0000
     28 H9          6.7258    1.3157   -1.4730 H         1 <0>         0.0000
     29 H10         7.2314   -0.3399   -0.8362 H         1 <0>         0.0000
     30 H11         3.5551   -1.1111   -2.2870 H         1 <0>         0.0000
     31 H12         5.1885   -1.8013   -2.3292 H         1 <0>         0.0000
     32 H13         5.4486   -2.9270    0.0241 H         1 <0>         0.0000
@<TRIPOS>BOND
     1    1    3 ar
     2    1    7 ar
     3    1   20 1
     4    2    4 ar
     5    2    7 ar
     6    2   21 1
     7    3    8 ar
     8    3   22 1
     9    4    8 ar
    10    4   23 1
    11    5   14 1
    12    5   15 2
    13    5   24 1
    14    6   14 2
    15    6   16 1
    16    6   25 1
    17    7   13 1
    18    8   19 1
    19    9   10 1
    20    9   11 1
    21    9   26 1
    22    9   27 1
    23   10   11 1
    24   10   28 1
    25   10   29 1
    26   11   13 1
    27   11   18 1
    28   12   13 1
    29   12   16 1
    30   12   30 1
    31   12   31 1
    32   13   17 1
    33   15   16 1
    34   17   32 1
