@<TRIPOS>MOLECULE
*****
   26    27     0     0     0
SMALL
NO_CHARGES

@<TRIPOS>ATOM
      1 C1          2.8738   -4.7207    0.5798 C.ar      1 <0>         0.0000
      2 C2          5.2604   -4.9907    0.2568 C.ar      1 <0>         0.0000
      3 C3          1.8883   -1.2852   -0.0345 C.ar      1 <0>         0.0000
      4 C4          2.7484   -6.0961    0.7954 C.ar      1 <0>         0.0000
      5 C5          5.1361   -6.3654    0.4537 C.ar      1 <0>         0.0000
      6 C6          0.7593   -0.6568    0.4909 C.ar      1 <0>         0.0000
      7 C7          1.7527   -0.7839    2.7018 C.ar      1 <0>         0.0000
      8 C8          2.8765   -1.4358    2.1764 C.ar      1 <0>         0.0000
      9 C9          4.1308   -4.1573    0.3124 C.ar      1 <0>         0.0000
     10 C10         2.9452   -1.6933    0.7913 C.ar      1 <0>         0.0000
     11 C11         3.8782   -6.9116    0.7251 C.ar      1 <0>         0.0000
     12 C12         0.7011   -0.4159    1.8648 C.ar      1 <0>         0.0000
     13 C13         3.9588   -1.7487    3.1872 C.2       1 <0>         0.0000
     14 O1          4.2998   -0.9330    4.0144 O.2       1 <0>         0.0000
     15 O2          4.4903   -2.9923    3.1913 O.3       1 <0>         0.0000
     16 S1          4.3843   -2.4110   -0.0011 S.3       1 <0>         0.0000
     17 Cl1         3.7215   -8.6363    0.9895 Cl        1 <0>         0.0000
     18 Cl2        -0.7030    0.3755    2.5452 Cl        1 <0>         0.0000
     19 H1          1.9875   -4.0957    0.6236 H         1 <0>         0.0000
     20 H2          6.2428   -4.5629    0.0769 H         1 <0>         0.0000
     21 H3          1.9555   -1.4653   -1.1030 H         1 <0>         0.0000
     22 H4          1.7757   -6.5279    1.0095 H         1 <0>         0.0000
     23 H5          6.0118   -7.0053    0.4140 H         1 <0>         0.0000
     24 H6         -0.0574   -0.3533   -0.1561 H         1 <0>         0.0000
     25 H7          1.7201   -0.5575    3.7621 H         1 <0>         0.0000
     26 H8          4.1141   -3.5479    2.4834 H         1 <0>         0.0000
@<TRIPOS>BOND
     1    1    4 ar
     2    1    9 ar
     3    1   19 1
     4    2    5 ar
     5    2    9 ar
     6    2   20 1
     7    3    6 ar
     8    3   10 ar
     9    3   21 1
    10    4   11 ar
    11    4   22 1
    12    5   11 ar
    13    5   23 1
    14    6   12 ar
    15    6   24 1
    16    7    8 ar
    17    7   12 ar
    18    7   25 1
    19    8   10 ar
    20    8   13 1
    21    9   16 1
    22   10   16 1
    23   11   17 1
    24   12   18 1
    25   13   14 2
    26   13   15 1
    27   15   26 1
