@<TRIPOS>MOLECULE
*****
   20    20     0     0     0
SMALL
NO_CHARGES

@<TRIPOS>ATOM
      1 C1          1.3538    2.1775   -1.7028 C.1       1 <0>         0.0000
      2 C2          1.8707   -0.8748    0.1134 C.ar      1 <0>         0.0000
      3 C3          1.5484   -0.8178    2.8960 C.ar      1 <0>         0.0000
      4 C4          0.7362   -0.2700    0.6608 C.ar      1 <0>         0.0000
      5 C5          2.8223   -1.4483    0.9508 C.ar      1 <0>         0.0000
      6 C6          0.5949   -0.2600    2.0554 C.ar      1 <0>         0.0000
      7 C7          2.6779   -1.4230    2.3393 C.ar      1 <0>         0.0000
      8 C8          0.7633    2.4925   -0.3961 C.3       1 <0>         0.0000
      9 C9         -0.4819    1.6434   -0.0941 C.3       1 <0>         0.0000
     10 N1          1.8174    1.9059   -2.7336 N.1       1 <0>         0.0000
     11 O1         -0.2192    0.2355   -0.1843 O.3       1 <0>         0.0000
     12 F1          3.9049   -2.0279    0.3983 F         1 <0>         0.0000
     13 F2         -0.5071    0.3116    2.6041 F         1 <0>         0.0000
     14 Br1         4.0003   -2.2063    3.4599 Br        1 <0>         0.0000
     15 H1          2.0064   -0.8903   -0.9631 H         1 <0>         0.0000
     16 H2          1.3976   -0.7896    3.9697 H         1 <0>         0.0000
     17 H3          1.5270    2.3403    0.3733 H         1 <0>         0.0000
     18 H4          0.4862    3.5519   -0.3732 H         1 <0>         0.0000
     19 H5         -1.2592    1.8256   -0.8373 H         1 <0>         0.0000
     20 H6         -0.8648    1.9068    0.8959 H         1 <0>         0.0000
@<TRIPOS>BOND
     1    1    8 1
     2    1   10 3
     3    2    4 ar
     4    2    5 ar
     5    2   15 1
     6    3    6 ar
     7    3    7 ar
     8    3   16 1
     9    4    6 ar
    10    4   11 1
    11    5    7 ar
    12    5   12 1
    13    6   13 1
    14    7   14 1
    15    8    9 1
    16    8   17 1
    17    8   18 1
    18    9   11 1
    19    9   19 1
    20    9   20 1
