@<TRIPOS>MOLECULE
*****
   39    41     0     0     0
SMALL
NO_CHARGES

@<TRIPOS>ATOM
      1 C1         -1.7729   -0.1000    2.2564 C.ar      1 <0>         0.0000
      2 C2         -2.4745    0.8792    1.5577 C.ar      1 <0>         0.0000
      3 C3          3.8787    3.2483   -0.6924 C.ar      1 <0>         0.0000
      4 C4         -0.6893   -0.7363    1.6536 C.ar      1 <0>         0.0000
      5 C5          2.8703    3.1372    0.2625 C.ar      1 <0>         0.0000
      6 C6          3.9995    0.8622   -0.8714 C.ar      1 <0>         0.0000
      7 C7         -2.1021    1.2447    0.2534 C.ar      1 <0>         0.0000
      8 C8          4.4704    2.1150   -1.2723 C.ar      1 <0>         0.0000
      9 C9         -0.2821   -0.3790    0.3653 C.ar      1 <0>         0.0000
     10 C10        -0.9960    0.6041   -0.3563 C.ar      1 <0>         0.0000
     11 C11         2.4066    1.8783    0.6669 C.ar      1 <0>         0.0000
     12 C12         2.9761    0.7377    0.0763 C.ar      1 <0>         0.0000
     13 C13        -2.8404    2.3312   -0.4415 C.2       1 <0>         0.0000
     14 C14         0.7685   -1.0132   -1.7262 C.3       1 <0>         0.0000
     15 C15         0.4987    0.4010   -2.2167 C.3       1 <0>         0.0000
     16 C16         5.5850    2.2498   -2.2840 C.3       1 <0>         0.0000
     17 N1          0.8184   -1.0441   -0.2559 N.pl3     1 <0>         0.0000
     18 O1         -2.4689    2.9754   -1.4052 O.2       1 <0>         0.0000
     19 O2          3.2109   -1.8385   -0.3431 O.2       1 <0>         0.0000
     20 O3          2.2231   -1.0885    1.8824 O.2       1 <0>         0.0000
     21 O4         -0.7020    0.9320   -1.6399 O.3       1 <0>         0.0000
     22 O5          1.4199    1.7236    1.5917 O.3       1 <0>         0.0000
     23 O6         -4.0493    2.5898    0.1518 O.3       1 <0>         0.0000
     24 S1          2.3822   -0.9231    0.4438 S.o2      1 <0>         0.0000
     25 H1         -2.0731   -0.3776    3.2621 H         1 <0>         0.0000
     26 H2         -3.3247    1.3748    2.0114 H         1 <0>         0.0000
     27 H3          4.2128    4.2396   -0.9906 H         1 <0>         0.0000
     28 H4         -0.1305   -1.5030    2.1763 H         1 <0>         0.0000
     29 H5          2.4314    4.0324    0.6992 H         1 <0>         0.0000
     30 H6          4.4165   -0.0464   -1.2942 H         1 <0>         0.0000
     31 H7         -0.0374   -1.6853   -2.0370 H         1 <0>         0.0000
     32 H8          1.7048   -1.4007   -2.1278 H         1 <0>         0.0000
     33 H9          1.3321    1.0658   -1.9706 H         1 <0>         0.0000
     34 H10         0.3362    0.4248   -3.2966 H         1 <0>         0.0000
     35 H11         6.5027    2.6191   -1.8123 H         1 <0>         0.0000
     36 H12         5.8163    1.2890   -2.7509 H         1 <0>         0.0000
     37 H13         5.3186    2.9555   -3.0779 H         1 <0>         0.0000
     38 H14         1.0234    2.5857    1.7954 H         1 <0>         0.0000
     39 H15        -4.4274    3.3312   -0.3577 H         1 <0>         0.0000
@<TRIPOS>BOND
     1    1    2 ar
     2    1    4 ar
     3    1   25 1
     4    2    7 ar
     5    2   26 1
     6    3    5 ar
     7    3    8 ar
     8    3   27 1
     9    4    9 ar
    10    4   28 1
    11    5   11 ar
    12    5   29 1
    13    6    8 ar
    14    6   12 ar
    15    6   30 1
    16    7   10 ar
    17    7   13 1
    18    8   16 1
    19    9   10 ar
    20    9   17 1
    21   10   21 1
    22   11   12 ar
    23   11   22 1
    24   12   24 1
    25   13   18 2
    26   13   23 1
    27   14   15 1
    28   14   17 1
    29   14   31 1
    30   14   32 1
    31   15   21 1
    32   15   33 1
    33   15   34 1
    34   16   35 1
    35   16   36 1
    36   16   37 1
    37   17   24 1
    38   19   24 2
    39   20   24 2
    40   22   38 1
    41   23   39 1
