@<TRIPOS>MOLECULE
*****
   38    40     0     0     0
SMALL
NO_CHARGES

@<TRIPOS>ATOM
      1 C1          1.4936    2.5760    1.4989 C.ar      1 <0>         0.0000
      2 C2          0.7920    2.0146    2.5731 C.ar      1 <0>         0.0000
      3 C3          1.4209    1.9718    0.2439 C.ar      1 <0>         0.0000
      4 C4          0.0124    0.8788    2.3725 C.ar      1 <0>         0.0000
      5 C5          0.6658    0.8092    0.0178 C.ar      1 <0>         0.0000
      6 C6         -0.0616    0.2852    1.1037 C.ar      1 <0>         0.0000
      7 C7          3.2531   -1.8875   -5.0237 C.3       1 <0>         0.0000
      8 C8          3.8325   -2.1870   -3.6544 C.3       1 <0>         0.0000
      9 C9         -0.0665   -1.2353   -1.2393 C.3       1 <0>         0.0000
     10 C10         0.6092    0.1387   -1.3465 C.3       1 <0>         0.0000
     11 C11         3.1859   -0.8494   -3.9305 C.3       1 <0>         0.0000
     12 C12        -1.2895   -1.2226   -0.3221 C.3       1 <0>         0.0000
     13 C13        -2.3841   -0.2619   -0.8053 C.3       1 <0>         0.0000
     14 C14        -1.8486   -2.6308   -0.1370 C.3       1 <0>         0.0000
     15 C15         2.0007   -0.0069   -1.9873 C.3       1 <0>         0.0000
     16 N1          1.9009   -0.6024   -3.3239 N.3       1 <0>         0.0000
     17 O1         -0.8695   -0.8181    1.0113 O.3       1 <0>         0.0000
     18 H1          2.0894    3.4739    1.6381 H         1 <0>         0.0000
     19 H2          0.8408    2.4684    3.5597 H         1 <0>         0.0000
     20 H3          1.9670    2.4172   -0.5833 H         1 <0>         0.0000
     21 H4         -0.5604    0.4343    3.1815 H         1 <0>         0.0000
     22 H5          3.9374   -1.7198   -5.8503 H         1 <0>         0.0000
     23 H6          2.3214   -2.3793   -5.2858 H         1 <0>         0.0000
     24 H7          3.2755   -2.8698   -3.0201 H         1 <0>         0.0000
     25 H8          4.9123   -2.2260   -3.5453 H         1 <0>         0.0000
     26 H9         -0.3431   -1.5963   -2.2323 H         1 <0>         0.0000
     27 H10         0.6537   -1.9542   -0.8304 H         1 <0>         0.0000
     28 H11         0.0074    0.7741   -2.0143 H         1 <0>         0.0000
     29 H12         3.8684    0.0021   -4.0238 H         1 <0>         0.0000
     30 H13        -3.2479   -0.3102   -0.1359 H         1 <0>         0.0000
     31 H14        -2.7107   -0.5335   -1.8147 H         1 <0>         0.0000
     32 H15        -2.0320    0.7727   -0.8260 H         1 <0>         0.0000
     33 H16        -2.6689   -2.6228    0.5871 H         1 <0>         0.0000
     34 H17        -1.0709   -3.3063    0.2310 H         1 <0>         0.0000
     35 H18        -2.2273   -3.0183   -1.0879 H         1 <0>         0.0000
     36 H19         2.6126   -0.6706   -1.3664 H         1 <0>         0.0000
     37 H20         2.5160    0.9662   -2.0102 H         1 <0>         0.0000
     38 H21         1.3578    0.0144   -3.9274 H         1 <0>         0.0000
@<TRIPOS>BOND
     1    1    2 ar
     2    1    3 ar
     3    1   18 1
     4    2    4 ar
     5    2   19 1
     6    3    5 ar
     7    3   20 1
     8    4    6 ar
     9    4   21 1
    10    5    6 ar
    11    5   10 1
    12    6   17 1
    13    7    8 1
    14    7   11 1
    15    7   22 1
    16    7   23 1
    17    8   11 1
    18    8   24 1
    19    8   25 1
    20    9   10 1
    21    9   12 1
    22    9   26 1
    23    9   27 1
    24   10   15 1
    25   10   28 1
    26   11   16 1
    27   11   29 1
    28   12   13 1
    29   12   14 1
    30   12   17 1
    31   13   30 1
    32   13   31 1
    33   13   32 1
    34   14   33 1
    35   14   34 1
    36   14   35 1
    37   15   16 1
    38   15   36 1
    39   15   37 1
    40   16   38 1
