@<TRIPOS>MOLECULE
*****
   44    46     0     0     0
SMALL
NO_CHARGES

@<TRIPOS>ATOM
      1 C1          3.6424    1.6870   -5.3469 C.ar      1 <0>         0.0000
      2 C2          3.2423    2.8026   -6.0923 C.ar      1 <0>         0.0000
      3 C3          2.6656    0.8388   -4.8307 C.ar      1 <0>         0.0000
      4 C4          1.8762    3.0109   -6.2855 C.ar      1 <0>         0.0000
      5 C5          1.3153    1.1340   -5.0820 C.ar      1 <0>         0.0000
      6 C6          0.1489    1.3108   -0.9076 C.3       1 <0>         0.0000
      7 C7         -0.3571    0.0135   -0.2577 C.3       1 <0>         0.0000
      8 C8         -0.3937   -2.5554   -0.4796 C.3       1 <0>         0.0000
      9 C9         -0.1700    1.3516   -2.4053 C.3       1 <0>         0.0000
     10 C10         0.6026   -3.6113   -1.0051 C.3       1 <0>         0.0000
     11 C11        -0.2947   -1.0518   -2.5125 C.3       1 <0>         0.0000
     12 C12         1.6421   -1.4195   -0.9408 C.3       1 <0>         0.0000
     13 C13         0.1211   -1.2178   -1.0373 C.3       1 <0>         0.0000
     14 C14         3.6618   -4.5966   -2.2724 C.3       1 <0>         0.0000
     15 C15         0.2363    0.2251   -4.5285 C.3       1 <0>         0.0000
     16 N1          0.9232    2.2016   -5.7939 N.ar      1 <0>         0.0000
     17 N2          0.3190    0.1440   -3.0705 N.3       1 <0>         0.0000
     18 N3          1.8612   -2.8521   -1.2715 N.pl3     1 <0>         0.0000
     19 O1          3.5318   -2.0529   -3.0280 O.2       1 <0>         0.0000
     20 O2          1.6976   -3.6528   -3.7595 O.2       1 <0>         0.0000
     21 S1          2.6450   -3.1857   -2.7325 S.o2      1 <0>         0.0000
     22 H1          4.6965    1.4823   -5.1752 H         1 <0>         0.0000
     23 H2          3.9674    3.4934   -6.5142 H         1 <0>         0.0000
     24 H3          2.9273   -0.0386   -4.2458 H         1 <0>         0.0000
     25 H4          1.5244    3.8684   -6.8580 H         1 <0>         0.0000
     26 H5         -0.3015    2.1801   -0.4153 H         1 <0>         0.0000
     27 H6          1.2337    1.3933   -0.7755 H         1 <0>         0.0000
     28 H7         -0.0278   -0.0460    0.7873 H         1 <0>         0.0000
     29 H8         -1.4553    0.0158   -0.2438 H         1 <0>         0.0000
     30 H9         -1.4186   -2.7768   -0.7927 H         1 <0>         0.0000
     31 H10        -0.3783   -2.5290    0.6156 H         1 <0>         0.0000
     32 H11        -1.2636    1.4627   -2.5512 H         1 <0>         0.0000
     33 H12         0.3036    2.2229   -2.8666 H         1 <0>         0.0000
     34 H13         0.7952   -4.3991   -0.2708 H         1 <0>         0.0000
     35 H14         0.2422   -4.0760   -1.9259 H         1 <0>         0.0000
     36 H15         0.0232   -1.9134   -3.1055 H         1 <0>         0.0000
     37 H16        -1.4019   -1.0166   -2.5610 H         1 <0>         0.0000
     38 H17         2.2036   -0.7772   -1.6152 H         1 <0>         0.0000
     39 H18         1.9924   -1.2489    0.0844 H         1 <0>         0.0000
     40 H19         4.1895   -4.9145   -3.1734 H         1 <0>         0.0000
     41 H20         4.3587   -4.2756   -1.4988 H         1 <0>         0.0000
     42 H21         3.0104   -5.3944   -1.9126 H         1 <0>         0.0000
     43 H22        -0.7436    0.5831   -4.8837 H         1 <0>         0.0000
     44 H23         0.3882   -0.7845   -4.9251 H         1 <0>         0.0000
@<TRIPOS>BOND
     1    1    2 ar
     2    1    3 ar
     3    1   22 1
     4    2    4 ar
     5    2   23 1
     6    3    5 ar
     7    3   24 1
     8    4   16 ar
     9    4   25 1
    10    5   15 1
    11    5   16 ar
    12    6    7 1
    13    6    9 1
    14    6   26 1
    15    6   27 1
    16    7   13 1
    17    7   28 1
    18    7   29 1
    19    8   10 1
    20    8   13 1
    21    8   30 1
    22    8   31 1
    23    9   17 1
    24    9   32 1
    25    9   33 1
    26   10   18 1
    27   10   34 1
    28   10   35 1
    29   11   13 1
    30   11   17 1
    31   11   36 1
    32   11   37 1
    33   12   13 1
    34   12   18 1
    35   12   38 1
    36   12   39 1
    37   14   21 1
    38   14   40 1
    39   14   41 1
    40   14   42 1
    41   15   17 1
    42   15   43 1
    43   15   44 1
    44   18   21 1
    45   19   21 2
    46   20   21 2
