@<TRIPOS>MOLECULE
*****
   43    45     0     0     0
SMALL
NO_CHARGES

@<TRIPOS>ATOM
      1 C1          3.4009   -6.6785   -0.2858 C.ar      1 <0>         0.0000
      2 C2          4.2281   -7.1801   -2.4994 C.ar      1 <0>         0.0000
      3 C3          3.2266   -5.3447   -0.6545 C.ar      1 <0>         0.0000
      4 C4          4.0542   -5.8471   -2.8606 C.ar      1 <0>         0.0000
      5 C5          6.4230   -1.4249   -2.0732 C.2       1 <0>         0.0000
      6 C6          5.4689   -2.0275   -2.8643 C.2       1 <0>         0.0000
      7 C7          5.1215   -2.4865   -0.7338 C.2       1 <0>         0.0000
      8 C8          3.9044   -7.6137   -1.2037 C.ar      1 <0>         0.0000
      9 C9          3.5540   -4.9094   -1.9456 C.ar      1 <0>         0.0000
     10 C10         4.1093   -9.0582   -0.8571 C.2       1 <0>         0.0000
     11 C11        -0.4168   -1.2918   -2.3255 C.3       1 <0>         0.0000
     12 C12        -0.3953   -2.7634   -1.8925 C.3       1 <0>         0.0000
     13 C13         0.8436   -0.5588   -1.8485 C.3       1 <0>         0.0000
     14 C14         0.8856   -3.4710   -2.3561 C.3       1 <0>         0.0000
     15 C15         2.1225   -1.2679   -2.3139 C.3       1 <0>         0.0000
     16 C16         2.1487   -2.7401   -1.8691 C.3       1 <0>         0.0000
     17 C17         3.7787   -9.5253    0.5493 C.3       1 <0>         0.0000
     18 C18         3.4227   -3.4528   -2.3685 C.3       1 <0>         0.0000
     19 N1          6.1972   -1.7182   -0.7441 N.2       1 <0>         0.0000
     20 N2          4.6368   -2.7101   -1.9958 N.pl3     1 <0>         0.0000
     21 O1          4.5368   -9.8457   -1.6935 O.2       1 <0>         0.0000
     22 H1          3.1383   -6.9835    0.7225 H         1 <0>         0.0000
     23 H2          4.6149   -7.9076   -3.2061 H         1 <0>         0.0000
     24 H3          2.8239   -4.6456    0.0726 H         1 <0>         0.0000
     25 H4          4.3143   -5.5246   -3.8664 H         1 <0>         0.0000
     26 H5          7.2541   -0.8047   -2.3839 H         1 <0>         0.0000
     27 H6          5.3020   -2.0326   -3.9322 H         1 <0>         0.0000
     28 H7          4.6665   -2.9160    0.1481 H         1 <0>         0.0000
     29 H8         -1.3150   -0.7954   -1.9404 H         1 <0>         0.0000
     30 H9         -0.4732   -1.2387   -3.4217 H         1 <0>         0.0000
     31 H10        -0.4609   -2.8197   -0.7970 H         1 <0>         0.0000
     32 H11        -1.2722   -3.2909   -2.2851 H         1 <0>         0.0000
     33 H12         0.8433    0.4764   -2.2082 H         1 <0>         0.0000
     34 H13         0.8403   -0.5075   -0.7509 H         1 <0>         0.0000
     35 H14         0.8859   -4.5096   -2.0111 H         1 <0>         0.0000
     36 H15         0.9016   -3.5073   -3.4552 H         1 <0>         0.0000
     37 H16         2.1803   -1.2276   -3.4116 H         1 <0>         0.0000
     38 H17         3.0032   -0.7416   -1.9343 H         1 <0>         0.0000
     39 H18         2.1514   -2.7518   -0.7706 H         1 <0>         0.0000
     40 H19         2.7228   -9.3490    0.7816 H         1 <0>         0.0000
     41 H20         4.3731   -8.9815    1.2915 H         1 <0>         0.0000
     42 H21         3.9917  -10.5919    0.6266 H         1 <0>         0.0000
     43 H22         3.3985   -3.4310   -3.4623 H         1 <0>         0.0000
@<TRIPOS>BOND
     1    1    3 ar
     2    1    8 ar
     3    1   22 1
     4    2    4 ar
     5    2    8 ar
     6    2   23 1
     7    3    9 ar
     8    3   24 1
     9    4    9 ar
    10    4   25 1
    11    5    6 2
    12    5   19 1
    13    5   26 1
    14    6   20 1
    15    6   27 1
    16    7   19 2
    17    7   20 1
    18    7   28 1
    19    8   10 1
    20    9   18 1
    21   10   17 1
    22   10   21 2
    23   11   13 1
    24   11   12 1
    25   11   29 1
    26   11   30 1
    27   12   14 1
    28   12   31 1
    29   12   32 1
    30   13   15 1
    31   13   33 1
    32   13   34 1
    33   14   16 1
    34   14   35 1
    35   14   36 1
    36   15   16 1
    37   15   37 1
    38   15   38 1
    39   16   18 1
    40   16   39 1
    41   17   40 1
    42   17   41 1
    43   17   42 1
    44   18   20 1
    45   18   43 1
