@<TRIPOS>MOLECULE
*****
   39    40     0     0     0
SMALL
NO_CHARGES

@<TRIPOS>ATOM
      1 C1         -3.8562    2.6064    2.7109 C.ar      1 <0>         0.0000
      2 C2         -4.2056    3.0545    3.9823 C.ar      1 <0>         0.0000
      3 C3         -1.9920    2.5376    4.7612 C.ar      1 <0>         0.0000
      4 C4         -2.5836    2.0814    2.4459 C.ar      1 <0>         0.0000
      5 C5         -3.2791    3.0293    5.0339 C.ar      1 <0>         0.0000
      6 C6         -1.6506    2.0528    3.5031 C.ar      1 <0>         0.0000
      7 C7         -2.3575    1.6428    1.0373 C.2       1 <0>         0.0000
      8 C8         -3.1069    2.8802    7.6422 C.3       1 <0>         0.0000
      9 C9         -2.6551    4.2613    7.2598 C.3       1 <0>         0.0000
     10 C10        -3.6600    3.5292    6.3793 C.3       1 <0>         0.0000
     11 C11        -0.1704   -2.4383    3.4880 C.3       1 <0>         0.0000
     12 C12         1.3250   -1.1336    5.0319 C.3       1 <0>         0.0000
     13 C13        -1.1821   -0.8333    5.1338 C.3       1 <0>         0.0000
     14 C14         0.0238   -1.0993    4.2176 C.3       1 <0>         0.0000
     15 N1          0.1592   -0.0959    3.1162 N.pl3     1 <0>         0.0000
     16 O1         -2.8268    2.2040    0.0686 O.2       1 <0>         0.0000
     17 O2          0.5328    2.1366    2.0318 O.2       1 <0>         0.0000
     18 O3          0.7577    1.8783    4.5652 O.2       1 <0>         0.0000
     19 O4         -1.6404    0.4872    0.9133 O.3       1 <0>         0.0000
     20 S1          0.0935    1.5556    3.2993 S.o2      1 <0>         0.0000
     21 H1         -4.5706    2.6575    1.8954 H         1 <0>         0.0000
     22 H2         -5.2063    3.4424    4.1555 H         1 <0>         0.0000
     23 H3         -1.2228    2.5435    5.5255 H         1 <0>         0.0000
     24 H4         -2.4113    2.0566    7.5113 H         1 <0>         0.0000
     25 H5         -3.7857    2.7688    8.4823 H         1 <0>         0.0000
     26 H6         -3.0234    5.1054    7.8348 H         1 <0>         0.0000
     27 H7         -1.6503    4.3859    6.8678 H         1 <0>         0.0000
     28 H8         -4.6847    3.8834    6.4450 H         1 <0>         0.0000
     29 H9         -1.1065   -2.4474    2.9176 H         1 <0>         0.0000
     30 H10         0.6606   -2.6295    2.8019 H         1 <0>         0.0000
     31 H11        -0.2105   -3.2557    4.2134 H         1 <0>         0.0000
     32 H12         1.5014   -0.1775    5.5263 H         1 <0>         0.0000
     33 H13         2.1752   -1.3420    4.3761 H         1 <0>         0.0000
     34 H14         1.2668   -1.9200    5.7922 H         1 <0>         0.0000
     35 H15        -1.0408    0.0760    5.7216 H         1 <0>         0.0000
     36 H16        -2.1072   -0.7337    4.5574 H         1 <0>         0.0000
     37 H17        -1.3025   -1.6657    5.8346 H         1 <0>         0.0000
     38 H18        -0.3264   -0.3425    2.2564 H         1 <0>         0.0000
     39 H19        -1.5048    0.3584   -0.0457 H         1 <0>         0.0000
@<TRIPOS>BOND
     1    1    2 ar
     2    1    4 ar
     3    1   21 1
     4    2    5 ar
     5    2   22 1
     6    3    5 ar
     7    3    6 ar
     8    3   23 1
     9    4    6 ar
    10    4    7 1
    11    5   10 1
    12    6   20 1
    13    7   16 2
    14    7   19 1
    15    8    9 1
    16    8   10 1
    17    8   24 1
    18    8   25 1
    19    9   10 1
    20    9   26 1
    21    9   27 1
    22   10   28 1
    23   11   14 1
    24   11   29 1
    25   11   30 1
    26   11   31 1
    27   12   14 1
    28   12   32 1
    29   12   33 1
    30   12   34 1
    31   13   14 1
    32   13   35 1
    33   13   36 1
    34   13   37 1
    35   14   15 1
    36   15   20 1
    37   15   38 1
    38   17   20 2
    39   18   20 2
    40   19   39 1
