@<TRIPOS>MOLECULE
*****
   39    41     0     0     0
SMALL
NO_CHARGES

@<TRIPOS>ATOM
      1 C1          2.7557   -0.3308   -5.2190 C.ar      1 <0>         0.0000
      2 C2          2.6373   -1.1125   -4.0630 C.ar      1 <0>         0.0000
      3 C3          2.4480    1.0335   -5.1873 C.ar      1 <0>         0.0000
      4 C4          2.2102   -0.5349   -2.8658 C.ar      1 <0>         0.0000
      5 C5          2.0140    1.6257   -3.9975 C.ar      1 <0>         0.0000
      6 C6         -4.0041    0.6774    1.2092 C.2       1 <0>         0.0000
      7 C7         -2.8816   -0.6741    0.0486 C.2       1 <0>         0.0000
      8 C8          1.9024    0.8287   -2.8570 C.ar      1 <0>         0.0000
      9 C9          0.0972   -0.8035    0.5266 C.2       1 <0>         0.0000
     10 C10         0.4017   -2.5582    2.3273 C.3       1 <0>         0.0000
     11 C11         1.7559   -2.0392    1.9782 C.3       1 <0>         0.0000
     12 C12         0.5609   -1.0876    1.9073 C.3       1 <0>         0.0000
     13 C13         0.4356   -0.0099    2.9684 C.3       1 <0>         0.0000
     14 C14        -0.4061    1.0167   -1.1718 C.3       1 <0>         0.0000
     15 C15        -0.6409    0.5298    0.2579 C.3       1 <0>         0.0000
     16 N1         -4.1189   -0.4731    0.4797 N.2       1 <0>         0.0000
     17 N2         -2.7815    1.1943    1.2554 N.2       1 <0>         0.0000
     18 N3         -2.0634    0.3096    0.5034 N.pl3     1 <0>         0.0000
     19 O1          0.2025   -1.6050   -0.3973 O.2       1 <0>         0.0000
     20 O2          2.0719    0.9711   -0.2031 O.2       1 <0>         0.0000
     21 O3          1.3270    3.0435   -1.5077 O.2       1 <0>         0.0000
     22 S1          1.3371    1.5833   -1.3295 S.o2      1 <0>         0.0000
     23 H1          3.0916   -0.7868   -6.1466 H         1 <0>         0.0000
     24 H2          2.8808   -2.1709   -4.0925 H         1 <0>         0.0000
     25 H3          2.5480    1.6373   -6.0849 H         1 <0>         0.0000
     26 H4          2.1120   -1.1249   -1.9604 H         1 <0>         0.0000
     27 H5          1.7782    2.6838   -3.9413 H         1 <0>         0.0000
     28 H6         -4.8362    1.1444    1.7201 H         1 <0>         0.0000
     29 H7         -2.5323   -1.4938   -0.5651 H         1 <0>         0.0000
     30 H8         -0.0883   -3.2127    1.6142 H         1 <0>         0.0000
     31 H9          0.1522   -2.7241    3.3710 H         1 <0>         0.0000
     32 H10         2.4650   -1.8383    2.7752 H         1 <0>         0.0000
     33 H11         2.1849   -2.3374    1.0280 H         1 <0>         0.0000
     34 H12         0.7825   -0.3945    3.9319 H         1 <0>         0.0000
     35 H13        -0.6000    0.3191    3.1018 H         1 <0>         0.0000
     36 H14         1.0532    0.8594    2.7205 H         1 <0>         0.0000
     37 H15        -1.0327    1.8778   -1.4096 H         1 <0>         0.0000
     38 H16        -0.5647    0.2106   -1.8888 H         1 <0>         0.0000
     39 H17        -0.3374    1.2943    0.9684 H         1 <0>         0.0000
@<TRIPOS>BOND
     1    1    3 ar
     2    1    2 ar
     3    1   23 1
     4    2    4 ar
     5    2   24 1
     6    3    5 ar
     7    3   25 1
     8    4    8 ar
     9    4   26 1
    10    5    8 ar
    11    5   27 1
    12    6   16 1
    13    6   17 2
    14    6   28 1
    15    7   16 2
    16    7   18 1
    17    7   29 1
    18    8   22 1
    19    9   12 1
    20    9   15 1
    21    9   19 2
    22   10   11 1
    23   10   12 1
    24   10   30 1
    25   10   31 1
    26   11   12 1
    27   11   32 1
    28   11   33 1
    29   12   13 1
    30   13   34 1
    31   13   35 1
    32   13   36 1
    33   14   15 1
    34   14   22 1
    35   14   37 1
    36   14   38 1
    37   15   18 1
    38   15   39 1
    39   17   18 1
    40   20   22 2
    41   21   22 2
