@<TRIPOS>MOLECULE
*****
   18    18     0     0     0
SMALL
NO_CHARGES

@<TRIPOS>ATOM
      1 C1          1.9105   -0.9873   -0.1620 C.ar      1 <0>         0.0000
      2 C2          0.8288   -0.4551    0.5327 C.ar      1 <0>         0.0000
      3 C3          1.8133   -1.2361    2.6279 C.ar      1 <0>         0.0000
      4 C4          2.9221   -1.6686    0.5196 C.ar      1 <0>         0.0000
      5 C5          2.8753   -1.7914    1.9166 C.ar      1 <0>         0.0000
      6 C6          0.8033   -0.5932    1.9187 C.ar      1 <0>         0.0000
      7 C7          3.7437   -3.5582    3.2211 C.3       1 <0>         0.0000
      8 N1          4.0183   -2.2378   -0.2801 N.pl3     1 <0>         0.0000
      9 O1          4.2776   -1.6702   -1.3474 O.3       1 <0>         0.0000
     10 O2          4.5865   -3.2455    0.1428 O.2       1 <0>         0.0000
     11 O3          3.9428   -2.3543    2.6028 O.3       1 <0>         0.0000
     12 F1         -0.2285   -0.0693    2.6076 F         1 <0>         0.0000
     13 F2          3.0791   -4.4349    2.4510 F         1 <0>         0.0000
     14 F3          3.0275   -3.4157    4.3665 F         1 <0>         0.0000
     15 F4          4.9377   -4.0527    3.5364 F         1 <0>         0.0000
     16 H1          1.9845   -0.8906   -1.2390 H         1 <0>         0.0000
     17 H2          0.0238    0.0636    0.0231 H         1 <0>         0.0000
     18 H3          1.7798   -1.2936    3.7098 H         1 <0>         0.0000
@<TRIPOS>BOND
     1    1    2 ar
     2    1    4 ar
     3    1   16 1
     4    2    6 ar
     5    2   17 1
     6    3    5 ar
     7    3    6 ar
     8    3   18 1
     9    4    5 ar
    10    4    8 1
    11    5   11 1
    12    6   12 1
    13    7   11 1
    14    7   13 1
    15    7   14 1
    16    7   15 1
    17    8    9 1
    18    8   10 2
