@<TRIPOS>MOLECULE
*****
   42    45     0     0     0
SMALL
NO_CHARGES

@<TRIPOS>ATOM
      1 C1          1.5458   -1.1451    3.1279 C.1       1 <0>         0.0000
      2 C2         -0.0900    0.9373   -3.6587 C.ar      1 <0>         0.0000
      3 C3          0.3103   -0.1144   -2.7997 C.ar      1 <0>         0.0000
      4 C4         -0.6969    2.1061   -3.1838 C.ar      1 <0>         0.0000
      5 C5         -0.5085    1.1441   -0.9515 C.ar      1 <0>         0.0000
      6 C6          0.0997   -0.0203   -1.4256 C.ar      1 <0>         0.0000
      7 C7         -0.8081    1.4948    0.3999 C.2       1 <0>         0.0000
      8 C8         -0.9003    2.2011   -1.8009 C.ar      1 <0>         0.0000
      9 C9         -1.3722    2.7507    0.3685 C.2       1 <0>         0.0000
     10 C10        -1.5849   -3.1170    1.8584 C.2       1 <0>         0.0000
     11 C11        -0.4857    0.5044    1.4812 C.3       1 <0>         0.0000
     12 C12        -0.6512   -2.1580   -0.3152 C.3       1 <0>         0.0000
     13 C13         0.8904   -2.8806    1.5814 C.3       1 <0>         0.0000
     14 C14         0.4431   -1.0701   -0.3885 C.3       1 <0>         0.0000
     15 C15        -0.4353   -3.1533    0.8516 C.3       1 <0>         0.0000
     16 C16         0.6747   -0.4021    0.9941 C.3       1 <0>         0.0000
     17 C17        -1.8820    3.6202    1.4716 C.3       1 <0>         0.0000
     18 C18        -2.4286   -4.1012    3.8382 C.3       1 <0>         0.0000
     19 N1          2.0642   -0.8422    4.1343 N.1       1 <0>         0.0000
     20 N2         -1.4345    3.1743   -0.9694 N.pl3     1 <0>         0.0000
     21 N3          0.9337   -1.4719    1.9927 N.3       1 <0>         0.0000
     22 O1         -2.5266   -2.3486    1.8435 O.2       1 <0>         0.0000
     23 O2         -1.4237   -4.0735    2.8005 O.3       1 <0>         0.0000
     24 H1          0.0858    0.8371   -4.7265 H         1 <0>         0.0000
     25 H2          0.7885   -0.9945   -3.2250 H         1 <0>         0.0000
     26 H3         -0.9860    2.8986   -3.8695 H         1 <0>         0.0000
     27 H4         -0.1808    0.9878    2.4155 H         1 <0>         0.0000
     28 H5         -1.3515   -0.1251    1.7124 H         1 <0>         0.0000
     29 H6         -1.6261   -1.6796   -0.2045 H         1 <0>         0.0000
     30 H7         -0.6697   -2.6928   -1.2686 H         1 <0>         0.0000
     31 H8          0.9739   -3.4995    2.4743 H         1 <0>         0.0000
     32 H9          1.7337   -3.1264    0.9233 H         1 <0>         0.0000
     33 H10         1.3874   -1.5451   -0.6791 H         1 <0>         0.0000
     34 H11        -0.3868   -4.1829    0.4807 H         1 <0>         0.0000
     35 H12         1.5755    0.2169    0.9097 H         1 <0>         0.0000
     36 H13        -1.3993    4.6052    1.4689 H         1 <0>         0.0000
     37 H14        -2.9649    3.7796    1.3966 H         1 <0>         0.0000
     38 H15        -1.6819    3.1526    2.4383 H         1 <0>         0.0000
     39 H16        -2.1393   -4.9172    4.4998 H         1 <0>         0.0000
     40 H17        -3.4150   -4.2831    3.4060 H         1 <0>         0.0000
     41 H18        -2.4383   -3.1518    4.3779 H         1 <0>         0.0000
     42 H19        -1.7889    4.0723   -1.2664 H         1 <0>         0.0000
@<TRIPOS>BOND
     1    1   19 3
     2    1   21 1
     3    2    3 ar
     4    2    4 ar
     5    2   24 1
     6    3    6 ar
     7    3   25 1
     8    4    8 ar
     9    4   26 1
    10    5    6 ar
    11    5    7 1
    12    5    8 ar
    13    6   14 1
    14    7    9 2
    15    7   11 1
    16    8   20 1
    17    9   17 1
    18    9   20 1
    19   10   15 1
    20   10   22 2
    21   10   23 1
    22   11   16 1
    23   11   27 1
    24   11   28 1
    25   12   14 1
    26   12   15 1
    27   12   29 1
    28   12   30 1
    29   13   15 1
    30   13   21 1
    31   13   31 1
    32   13   32 1
    33   14   16 1
    34   14   33 1
    35   15   34 1
    36   16   21 1
    37   16   35 1
    38   17   36 1
    39   17   37 1
    40   17   38 1
    41   18   23 1
    42   18   39 1
    43   18   40 1
    44   18   41 1
    45   20   42 1
