@<TRIPOS>MOLECULE
*****
   39    41     0     0     0
SMALL
NO_CHARGES

@<TRIPOS>ATOM
      1 C1          1.1696   -2.1243   -1.2226 C.ar      1 <0>         0.0000
      2 C2          1.7673   -3.3663   -1.4776 C.ar      1 <0>         0.0000
      3 C3          1.5938   -2.4161    1.1278 C.ar      1 <0>         0.0000
      4 C4          1.0715   -1.6413    0.0807 C.ar      1 <0>         0.0000
      5 C5          2.2779   -4.1401   -0.4321 C.ar      1 <0>         0.0000
      6 C6          2.1990   -3.6448    0.8906 C.ar      1 <0>         0.0000
      7 C7          0.4196    1.7061   -0.7566 C.2       1 <0>         0.0000
      8 C8          5.2317   -2.4025    1.0971 C.3       1 <0>         0.0000
      9 C9          6.2853   -3.1764    1.8567 C.3       1 <0>         0.0000
     10 C10         1.4098    0.6803    1.0906 C.3       1 <0>         0.0000
     11 C11         4.8307   -3.2692    2.2717 C.3       1 <0>         0.0000
     12 C12         0.4285   -0.3071    0.3987 C.3       1 <0>         0.0000
     13 C13        -0.8699   -0.4699    1.1960 C.3       1 <0>         0.0000
     14 C14         2.9121   -5.9213   -1.8973 C.3       1 <0>         0.0000
     15 C15         4.0897   -4.5609    2.0401 C.3       1 <0>         0.0000
     16 N1          1.0019    1.9347    0.4770 N.am      1 <0>         0.0000
     17 O1          0.1952    2.5101   -1.6340 O.2       1 <0>         0.0000
     18 O2          0.0948    0.3781   -0.8423 O.3       1 <0>         0.0000
     19 O3          2.8699   -5.3655   -0.5863 O.3       1 <0>         0.0000
     20 O4          2.6565   -4.3764    1.9616 O.3       1 <0>         0.0000
     21 H1          0.7804   -1.5353   -2.0452 H         1 <0>         0.0000
     22 H2          1.8200   -3.7211   -2.5007 H         1 <0>         0.0000
     23 H3          1.5533   -2.0779    2.1601 H         1 <0>         0.0000
     24 H4          5.1926   -1.3245    1.2235 H         1 <0>         0.0000
     25 H5          4.9638   -2.7460    0.1024 H         1 <0>         0.0000
     26 H6          6.7285   -4.0415    1.3701 H         1 <0>         0.0000
     27 H7          6.9655   -2.6299    2.5029 H         1 <0>         0.0000
     28 H8          1.2697    0.6910    2.1751 H         1 <0>         0.0000
     29 H9          2.4521    0.4228    0.8655 H         1 <0>         0.0000
     30 H10         4.5546   -2.7473    3.1855 H         1 <0>         0.0000
     31 H11        -1.2921    0.5102    1.4386 H         1 <0>         0.0000
     32 H12        -0.6850   -1.0158    2.1253 H         1 <0>         0.0000
     33 H13        -1.5953   -1.0324    0.6032 H         1 <0>         0.0000
     34 H14         3.3875   -6.8973   -1.7910 H         1 <0>         0.0000
     35 H15         3.5063   -5.2994   -2.5783 H         1 <0>         0.0000
     36 H16         1.9031   -6.0505   -2.3068 H         1 <0>         0.0000
     37 H17         4.2217   -5.2421    2.8849 H         1 <0>         0.0000
     38 H18         4.4503   -5.0585    1.1344 H         1 <0>         0.0000
     39 H19         1.5625    2.7732    0.5578 H         1 <0>         0.0000
@<TRIPOS>BOND
     1    1    2 ar
     2    1    4 ar
     3    1   21 1
     4    2    5 ar
     5    2   22 1
     6    3    4 ar
     7    3    6 ar
     8    3   23 1
     9    4   12 1
    10    5    6 ar
    11    5   19 1
    12    6   20 1
    13    7   16 am
    14    7   17 2
    15    7   18 1
    16    8    9 1
    17    8   11 1
    18    8   24 1
    19    8   25 1
    20    9   11 1
    21    9   26 1
    22    9   27 1
    23   10   12 1
    24   10   16 1
    25   10   28 1
    26   10   29 1
    27   11   15 1
    28   11   30 1
    29   12   13 1
    30   12   18 1
    31   13   31 1
    32   13   32 1
    33   13   33 1
    34   14   19 1
    35   14   34 1
    36   14   35 1
    37   14   36 1
    38   15   20 1
    39   15   37 1
    40   15   38 1
    41   16   39 1
