@<TRIPOS>MOLECULE
*****
   39    41     0     0     0
SMALL
NO_CHARGES

@<TRIPOS>ATOM
      1 C1          1.3600   -2.3281   -1.4975 C.ar      1 <0>         0.0000
      2 C2          1.8060   -3.6232   -1.7926 C.ar      1 <0>         0.0000
      3 C3          2.1938   -2.5866    0.7591 C.ar      1 <0>         0.0000
      4 C4          1.5472   -1.8094   -0.2182 C.ar      1 <0>         0.0000
      5 C5          2.4459   -4.4012   -0.8341 C.ar      1 <0>         0.0000
      6 C6          2.6541   -3.8725    0.4622 C.ar      1 <0>         0.0000
      7 C7          0.9505    1.5373   -1.0990 C.2       1 <0>         0.0000
      8 C8          3.5473   -6.3744    4.0620 C.3       1 <0>         0.0000
      9 C9          4.1826   -5.3041    4.9239 C.3       1 <0>         0.0000
     10 C10         2.2702    0.5214    0.5344 C.3       1 <0>         0.0000
     11 C11         4.3220   -5.2484    3.4173 C.3       1 <0>         0.0000
     12 C12         1.0872   -0.4125    0.1522 C.3       1 <0>         0.0000
     13 C13         0.0000   -0.4257    1.2323 C.3       1 <0>         0.0000
     14 C14         2.2804   -6.7547   -0.5424 C.3       1 <0>         0.0000
     15 C15         3.5834   -4.1828    2.6584 C.3       1 <0>         0.0000
     16 N1          1.8186    1.7758   -0.0482 N.am      1 <0>         0.0000
     17 O1          0.5848    2.3135   -1.9530 O.2       1 <0>         0.0000
     18 O2          0.5220    0.2382   -1.0198 O.3       1 <0>         0.0000
     19 O3          2.9207   -5.6432   -1.1881 O.3       1 <0>         0.0000
     20 O4          3.3111   -4.6834    1.3441 O.3       1 <0>         0.0000
     21 H1          0.8686   -1.7307   -2.2564 H         1 <0>         0.0000
     22 H2          1.6691   -4.0481   -2.7831 H         1 <0>         0.0000
     23 H3          2.3492   -2.1762    1.7509 H         1 <0>         0.0000
     24 H4          3.9918   -7.3649    4.0600 H         1 <0>         0.0000
     25 H5          2.4660   -6.3653    3.9553 H         1 <0>         0.0000
     26 H6          3.5262   -4.5824    5.4031 H         1 <0>         0.0000
     27 H7          5.0619   -5.5631    5.5054 H         1 <0>         0.0000
     28 H8          2.3892    0.5946    1.6191 H         1 <0>         0.0000
     29 H9          3.2096    0.1680    0.0925 H         1 <0>         0.0000
     30 H10         5.2960   -5.4994    3.0053 H         1 <0>         0.0000
     31 H11        -0.2875    0.5978    1.4918 H         1 <0>         0.0000
     32 H12         0.3547   -0.9311    2.1349 H         1 <0>         0.0000
     33 H13        -0.8789   -0.9578    0.8605 H         1 <0>         0.0000
     34 H14         2.7205   -7.6517   -0.9827 H         1 <0>         0.0000
     35 H15         1.2012   -6.7424   -0.7413 H         1 <0>         0.0000
     36 H16         2.4607   -6.7456    0.5360 H         1 <0>         0.0000
     37 H17         4.1853   -3.2667    2.5838 H         1 <0>         0.0000
     38 H18         2.6404   -3.9356    3.1661 H         1 <0>         0.0000
     39 H19         2.4443    2.5635   -0.1589 H         1 <0>         0.0000
@<TRIPOS>BOND
     1    1    2 ar
     2    1    4 ar
     3    1   21 1
     4    2    5 ar
     5    2   22 1
     6    3    4 ar
     7    3    6 ar
     8    3   23 1
     9    4   12 1
    10    5    6 ar
    11    5   19 1
    12    6   20 1
    13    7   16 am
    14    7   17 2
    15    7   18 1
    16    8    9 1
    17    8   11 1
    18    8   24 1
    19    8   25 1
    20    9   11 1
    21    9   26 1
    22    9   27 1
    23   10   12 1
    24   10   16 1
    25   10   28 1
    26   10   29 1
    27   11   15 1
    28   11   30 1
    29   12   13 1
    30   12   18 1
    31   13   31 1
    32   13   32 1
    33   13   33 1
    34   14   19 1
    35   14   34 1
    36   14   35 1
    37   14   36 1
    38   15   20 1
    39   15   37 1
    40   15   38 1
    41   16   39 1
