@<TRIPOS>MOLECULE
*****
   26    27     0     0     0
SMALL
NO_CHARGES

@<TRIPOS>ATOM
      1 C1          5.4694   -0.1879    0.2198 C.ar      1 <0>         0.0000
      2 C2          6.9246   -2.1246    0.1182 C.ar      1 <0>         0.0000
      3 C3          1.9085   -1.3116   -0.1374 C.ar      1 <0>         0.0000
      4 C4          6.5701    0.6262    0.4893 C.ar      1 <0>         0.0000
      5 C5          8.0315   -1.3111    0.3684 C.ar      1 <0>         0.0000
      6 C6          0.8274   -0.7013    0.4983 C.ar      1 <0>         0.0000
      7 C7          1.8199   -1.2512    2.6418 C.ar      1 <0>         0.0000
      8 C8          2.8929   -1.8952    2.0096 C.ar      1 <0>         0.0000
      9 C9          5.6444   -1.5648    0.0383 C.ar      1 <0>         0.0000
     10 C10         2.9413   -1.9084    0.5972 C.ar      1 <0>         0.0000
     11 C11         7.8454    0.0596    0.5553 C.ar      1 <0>         0.0000
     12 C12         0.7991   -0.6707    1.8930 C.ar      1 <0>         0.0000
     13 C13         3.8962   -2.5144    2.9692 C.2       1 <0>         0.0000
     14 O1          3.9527   -2.1590    4.1275 O.2       1 <0>         0.0000
     15 O2          4.6831   -3.5128    2.5225 O.3       1 <0>         0.0000
     16 S1          4.2690   -2.6537   -0.3596 S.3       1 <0>         0.0000
     17 Cl1         9.2289    1.0836    0.8849 Cl        1 <0>         0.0000
     18 Cl2        -0.5346    0.1103    2.7134 Cl        1 <0>         0.0000
     19 H1          4.4798    0.2547    0.1645 H         1 <0>         0.0000
     20 H2          7.0644   -3.1955    0.0004 H         1 <0>         0.0000
     21 H3          1.9611   -1.3160   -1.2217 H         1 <0>         0.0000
     22 H4          6.4385    1.6928    0.6414 H         1 <0>         0.0000
     23 H5          9.0252   -1.7421    0.4360 H         1 <0>         0.0000
     24 H6          0.0305   -0.2450   -0.0802 H         1 <0>         0.0000
     25 H7          1.8029   -1.2222    3.7256 H         1 <0>         0.0000
     26 H8          4.5712   -3.6329    1.5522 H         1 <0>         0.0000
@<TRIPOS>BOND
     1    1    4 ar
     2    1    9 ar
     3    1   19 1
     4    2    5 ar
     5    2    9 ar
     6    2   20 1
     7    3    6 ar
     8    3   10 ar
     9    3   21 1
    10    4   11 ar
    11    4   22 1
    12    5   11 ar
    13    5   23 1
    14    6   12 ar
    15    6   24 1
    16    7    8 ar
    17    7   12 ar
    18    7   25 1
    19    8   10 ar
    20    8   13 1
    21    9   16 1
    22   10   16 1
    23   11   17 1
    24   12   18 1
    25   13   14 2
    26   13   15 1
    27   15   26 1
