@<TRIPOS>MOLECULE
*****
   35    37     0     0     0
SMALL
NO_CHARGES

@<TRIPOS>ATOM
      1 C1         -0.6677   -4.8947    1.4641 C.ar      1 <0>         0.0000
      2 C2         -1.1921   -5.3672    0.2558 C.ar      1 <0>         0.0000
      3 C3          0.0383   -3.6852    1.5090 C.ar      1 <0>         0.0000
      4 C4         -0.2883   -3.4454   -0.8725 C.ar      1 <0>         0.0000
      5 C5         -1.0141   -4.6400   -0.9297 C.ar      1 <0>         0.0000
      6 C6          0.2340   -2.9495    0.3303 C.ar      1 <0>         0.0000
      7 C7         -0.0643    1.1960   -1.1404 C.2       1 <0>         0.0000
      8 C8         -0.4112   -0.3552    2.1643 C.2       1 <0>         0.0000
      9 C9          0.3760    2.1052   -2.0157 C.2       1 <0>         0.0000
     10 C10        -1.6293   -5.1168   -2.2702 C.2       1 <0>         0.0000
     11 C11        -1.2398    0.2509   -1.3544 C.3       1 <0>         0.0000
     12 C12         0.5417    0.9356    0.2310 C.3       1 <0>         0.0000
     13 C13        -2.3156    0.2705    1.0064 C.3       1 <0>         0.0000
     14 C14        -1.4302   -0.4632   -0.0108 C.3       1 <0>         0.0000
     15 C15        -0.0555   -0.4303    0.6860 C.3       1 <0>         0.0000
     16 C16         0.9024   -1.5943    0.3507 C.3       1 <0>         0.0000
     17 O1         -1.4756   -4.3229   -3.2411 O.co2     1 <0>         0.0000
     18 O2          0.2997   -0.5642    3.1222 O.2       1 <0>         0.0000
     19 O3         -2.2187   -6.2306   -2.2277 O.co2     1 <0>         0.0000
     20 O4         -1.7066    0.0595    2.3071 O.3       1 <0>         0.0000
     21 H1         -0.8115   -5.4641    2.3816 H         1 <0>         0.0000
     22 H2         -1.7511   -6.2970    0.1947 H         1 <0>         0.0000
     23 H3          0.4284   -3.3087    2.4525 H         1 <0>         0.0000
     24 H4         -0.1628   -2.9048   -1.8087 H         1 <0>         0.0000
     25 H5          1.2439    2.7272   -1.8046 H         1 <0>         0.0000
     26 H6         -0.1108    2.2492   -2.9783 H         1 <0>         0.0000
     27 H7         -2.1401    0.7757   -1.6932 H         1 <0>         0.0000
     28 H8         -0.9966   -0.4878   -2.1256 H         1 <0>         0.0000
     29 H9          1.6349    0.9104    0.2174 H         1 <0>         0.0000
     30 H10         0.2522    1.7403    0.9188 H         1 <0>         0.0000
     31 H11        -2.3559    1.3515    0.8249 H         1 <0>         0.0000
     32 H12        -3.3336   -0.1205    1.0580 H         1 <0>         0.0000
     33 H13        -1.7854   -1.4864   -0.1364 H         1 <0>         0.0000
     34 H14         1.7174   -1.5609    1.0826 H         1 <0>         0.0000
     35 H15         1.3398   -1.3919   -0.6335 H         1 <0>         0.0000
@<TRIPOS>BOND
     1    1    2 ar
     2    1    3 ar
     3    1   21 1
     4    2    5 ar
     5    2   22 1
     6    3    6 ar
     7    3   23 1
     8    4    5 ar
     9    4    6 ar
    10    4   24 1
    11    5   10 1
    12    6   16 1
    13    7    9 2
    14    7   11 1
    15    7   12 1
    16    8   15 1
    17    8   18 2
    18    8   20 1
    19    9   25 1
    20    9   26 1
    21   10   17 1
    22   10   19 2
    23   11   14 1
    24   11   27 1
    25   11   28 1
    26   12   15 1
    27   12   29 1
    28   12   30 1
    29   13   14 1
    30   13   20 1
    31   13   31 1
    32   13   32 1
    33   14   15 1
    34   14   33 1
    35   15   16 1
    36   16   34 1
    37   16   35 1
