@<TRIPOS>MOLECULE
*****
   41    43     0     0     0
SMALL
NO_CHARGES

@<TRIPOS>ATOM
      1 C1          8.5552    3.0043    2.8320 C.1       1 <0>         0.0000
      2 C2          6.0131   -2.2975    7.1766 C.ar      1 <0>         0.0000
      3 C3          4.7177   -1.7681    7.0969 C.ar      1 <0>         0.0000
      4 C4          6.7626   -2.5329    6.0146 C.ar      1 <0>         0.0000
      5 C5          4.1393   -1.4637    5.8570 C.ar      1 <0>         0.0000
      6 C6          6.1250    1.3016    4.8716 C.2       1 <0>         0.0000
      7 C7          7.4740    2.2920    3.4080 C.cat     1 <0>         0.0000
      8 C8          6.2066   -2.2167    4.7764 C.ar      1 <0>         0.0000
      9 C9          4.9115   -1.6863    4.7192 C.ar      1 <0>         0.0000
     10 C10         5.5994    1.1127    3.6136 C.2       1 <0>         0.0000
     11 C11         6.7853   -2.3359    3.3824 C.3       1 <0>         0.0000
     12 C12         5.5488   -2.1164    2.4828 C.3       1 <0>         0.0000
     13 C13         9.3415    0.1665    6.7070 C.3       1 <0>         0.0000
     14 C14        10.7561    1.7453    5.3271 C.3       1 <0>         0.0000
     15 N1          9.4591    3.5495    2.3412 N.1       1 <0>         0.0000
     16 N2          7.2838    2.0276    4.7201 N.pl3     1 <0>         0.0000
     17 N3          6.4524    1.7285    2.7257 N.pl3     1 <0>         0.0000
     18 N4          4.5451   -1.4130    3.3501 N.pl3     1 <0>         0.0000
     19 N5          9.6040    1.5426    6.2346 N.pl3     1 <0>         0.0000
     20 O1          3.0502    0.5708    3.8372 O.2       1 <0>         0.0000
     21 O2          4.2362    0.3778    1.5625 O.2       1 <0>         0.0000
     22 O3          8.8141    3.8941    5.7635 O.2       1 <0>         0.0000
     23 O4          7.4439    2.3207    7.2769 O.2       1 <0>         0.0000
     24 S1          4.1691    0.1774    3.0062 S.o2      1 <0>         0.0000
     25 S2          8.3871    2.5965    6.2207 S.o2      1 <0>         0.0000
     26 H1          6.4287   -2.5523    8.1474 H         1 <0>         0.0000
     27 H2          4.1421   -1.6122    8.0044 H         1 <0>         0.0000
     28 H3          7.7540   -2.9750    6.0807 H         1 <0>         0.0000
     29 H4          3.1332   -1.0657    5.7827 H         1 <0>         0.0000
     30 H5          5.7588    0.9968    5.8416 H         1 <0>         0.0000
     31 H6          7.5578   -1.5742    3.2102 H         1 <0>         0.0000
     32 H7          7.2435   -3.3099    3.1958 H         1 <0>         0.0000
     33 H8          5.7325   -1.5478    1.5721 H         1 <0>         0.0000
     34 H9          5.0919   -3.0672    2.2020 H         1 <0>         0.0000
     35 H10         8.5883    0.1769    7.4925 H         1 <0>         0.0000
     36 H11        10.2765   -0.2174    7.1183 H         1 <0>         0.0000
     37 H12         9.0130   -0.4725    5.8805 H         1 <0>         0.0000
     38 H13        10.8755    2.8030    5.1016 H         1 <0>         0.0000
     39 H14        10.6266    1.1734    4.4028 H         1 <0>         0.0000
     40 H15        11.6457    1.3935    5.8526 H         1 <0>         0.0000
     41 H16         6.2862    1.7766    1.7183 H         1 <0>         0.0000
@<TRIPOS>BOND
     1    1    7 1
     2    1   15 3
     3    2    3 ar
     4    2    4 ar
     5    2   26 1
     6    3    5 ar
     7    3   27 1
     8    4    8 ar
     9    4   28 1
    10    5    9 ar
    11    5   29 1
    12    6   10 2
    13    6   16 1
    14    6   30 1
    15    7   16 1
    16    7   17 2
    17    8    9 ar
    18    8   11 1
    19    9   18 1
    20   10   17 1
    21   10   24 1
    22   11   12 1
    23   11   31 1
    24   11   32 1
    25   12   18 1
    26   12   33 1
    27   12   34 1
    28   13   19 1
    29   13   35 1
    30   13   36 1
    31   13   37 1
    32   14   19 1
    33   14   38 1
    34   14   39 1
    35   14   40 1
    36   16   25 1
    37   17   41 1
    38   18   24 1
    39   19   25 1
    40   20   24 2
    41   21   24 2
    42   22   25 2
    43   23   25 2
