@<TRIPOS>MOLECULE
*****
   41    43     0     0     0
SMALL
NO_CHARGES

@<TRIPOS>ATOM
      1 C1          9.2386   -0.3705    0.1547 C.1       1 <0>         0.0000
      2 C2          7.2955   -1.7370    5.1308 C.ar      1 <0>         0.0000
      3 C3          6.3518   -2.0156    4.1349 C.ar      1 <0>         0.0000
      4 C4          7.4603   -0.4266    5.6014 C.ar      1 <0>         0.0000
      5 C5          5.5707   -0.9945    3.5697 C.ar      1 <0>         0.0000
      6 C6          6.9738    2.4202    0.2761 C.2       1 <0>         0.0000
      7 C7          8.1972    0.5715    0.3501 C.cat     1 <0>         0.0000
      8 C8          6.7039    0.6000    5.0404 C.ar      1 <0>         0.0000
      9 C9          5.7917    0.3111    4.0194 C.ar      1 <0>         0.0000
     10 C10         6.3364    1.5255    1.1034 C.2       1 <0>         0.0000
     11 C11         6.6187    2.0622    5.4124 C.3       1 <0>         0.0000
     12 C12         5.8632    2.6924    4.2234 C.3       1 <0>         0.0000
     13 C13        10.6186    4.2513    0.0235 C.3       1 <0>         0.0000
     14 C14        11.7021    2.0361   -0.5512 C.3       1 <0>         0.0000
     15 N1         10.1080   -1.1338    0.0278 N.1       1 <0>         0.0000
     16 N2          8.1236    1.8127   -0.1777 N.pl3     1 <0>         0.0000
     17 N3          7.1139    0.3852    1.1331 N.pl3     1 <0>         0.0000
     18 N4          5.1626    1.5286    3.5780 N.pl3     1 <0>         0.0000
     19 N5         10.6227    3.0206   -0.7958 N.pl3     1 <0>         0.0000
     20 O1          4.3710    3.0834    1.7506 O.2       1 <0>         0.0000
     21 O2          3.9647    0.5523    1.5695 O.2       1 <0>         0.0000
     22 O3          9.4989    1.4134   -2.3799 O.2       1 <0>         0.0000
     23 O4          8.4577    3.7193   -1.8817 O.2       1 <0>         0.0000
     24 S1          4.7506    1.7015    1.9777 S.o2      1 <0>         0.0000
     25 S2          9.2809    2.5785   -1.5598 S.o2      1 <0>         0.0000
     26 H1          7.8823   -2.5438    5.5591 H         1 <0>         0.0000
     27 H2          6.1980   -3.0396    3.8069 H         1 <0>         0.0000
     28 H3          8.1671   -0.2149    6.3994 H         1 <0>         0.0000
     29 H4          4.7976   -1.2198    2.8428 H         1 <0>         0.0000
     30 H5          6.6753    3.4094   -0.0422 H         1 <0>         0.0000
     31 H6          6.0451    2.1766    6.3378 H         1 <0>         0.0000
     32 H7          7.5934    2.5311    5.5676 H         1 <0>         0.0000
     33 H8          5.1256    3.4400    4.5087 H         1 <0>         0.0000
     34 H9          6.5639    3.1460    3.5125 H         1 <0>         0.0000
     35 H10         9.9024    4.9662   -0.3773 H         1 <0>         0.0000
     36 H11        11.6184    4.6844   -0.0387 H         1 <0>         0.0000
     37 H12        10.3863    4.0186    1.0679 H         1 <0>         0.0000
     38 H13        11.6291    1.2135   -1.2592 H         1 <0>         0.0000
     39 H14        11.6515    1.6579    0.4738 H         1 <0>         0.0000
     40 H15        12.6509    2.5534   -0.7063 H         1 <0>         0.0000
     41 H16         6.9129   -0.4459    1.6999 H         1 <0>         0.0000
@<TRIPOS>BOND
     1    1    7 1
     2    1   15 3
     3    2    3 ar
     4    2    4 ar
     5    2   26 1
     6    3    5 ar
     7    3   27 1
     8    4    8 ar
     9    4   28 1
    10    5    9 ar
    11    5   29 1
    12    6   10 2
    13    6   16 1
    14    6   30 1
    15    7   16 1
    16    7   17 2
    17    8    9 ar
    18    8   11 1
    19    9   18 1
    20   10   17 1
    21   10   24 1
    22   11   12 1
    23   11   31 1
    24   11   32 1
    25   12   18 1
    26   12   33 1
    27   12   34 1
    28   13   19 1
    29   13   35 1
    30   13   36 1
    31   13   37 1
    32   14   19 1
    33   14   38 1
    34   14   39 1
    35   14   40 1
    36   16   25 1
    37   17   41 1
    38   18   24 1
    39   19   25 1
    40   20   24 2
    41   21   24 2
    42   22   25 2
    43   23   25 2
