@<TRIPOS>MOLECULE
*****
   36    39     0     0     0
SMALL
NO_CHARGES

@<TRIPOS>ATOM
      1 C1          7.1478   -3.8349    0.2293 C.2       1 <0>         0.0000
      2 C2          5.1806   -4.4809    0.5478 C.2       1 <0>         0.0000
      3 C3          2.0960   -4.5166   -0.4272 C.2       1 <0>         0.0000
      4 C4          2.1987   -3.9423    1.8157 C.2       1 <0>         0.0000
      5 C5         -1.1817   -2.6995   -1.0764 C.3       1 <0>         0.0000
      6 C6         -0.1926   -1.5285   -0.8595 C.3       1 <0>         0.0000
      7 C7          9.5162   -4.4162    1.0310 C.3       1 <0>         0.0000
      8 C8          9.4252   -4.8367   -0.4045 C.3       1 <0>         0.0000
      9 C9         -0.4203   -3.9862   -0.6437 C.3       1 <0>         0.0000
     10 C10         1.1920   -2.1902   -0.9121 C.3       1 <0>         0.0000
     11 C11         8.5933   -3.6543    0.0844 C.3       1 <0>         0.0000
     12 C12         0.9704   -3.5192   -0.1564 C.3       1 <0>         0.0000
     13 C13         4.0310   -5.3855    0.8921 C.3       1 <0>         0.0000
     14 N1          6.4891   -4.9074    0.5912 N.2       1 <0>         0.0000
     15 N2          5.0158   -3.2324    0.1851 N.2       1 <0>         0.0000
     16 N3          1.0630   -3.3664    1.3010 N.am      1 <0>         0.0000
     17 N4          2.7581   -4.7117    0.7695 N.am      1 <0>         0.0000
     18 O1          2.3742   -5.0337   -1.4950 O.2       1 <0>         0.0000
     19 O2          2.6520   -3.8618    2.9443 O.2       1 <0>         0.0000
     20 O3          6.3417   -2.7869   -0.0328 O.3       1 <0>         0.0000
     21 H1         -2.1061   -2.5592   -0.5095 H         1 <0>         0.0000
     22 H2         -1.4627   -2.7676   -2.1314 H         1 <0>         0.0000
     23 H3         -0.3049   -0.7337   -1.6023 H         1 <0>         0.0000
     24 H4         -0.3530   -1.0667    0.1230 H         1 <0>         0.0000
     25 H5          9.0301   -5.0410    1.7728 H         1 <0>         0.0000
     26 H6         10.4041   -3.8907    1.3682 H         1 <0>         0.0000
     27 H7         10.2494   -4.6048   -1.0717 H         1 <0>         0.0000
     28 H8          8.8784   -5.7457   -0.6318 H         1 <0>         0.0000
     29 H9         -0.9286   -4.5436    0.1463 H         1 <0>         0.0000
     30 H10        -0.2798   -4.6599   -1.4927 H         1 <0>         0.0000
     31 H11         1.4630   -2.4309   -1.9455 H         1 <0>         0.0000
     32 H12         2.0021   -1.6005   -0.4753 H         1 <0>         0.0000
     33 H13         8.8917   -2.6593   -0.2265 H         1 <0>         0.0000
     34 H14         4.0405   -6.2488    0.2220 H         1 <0>         0.0000
     35 H15         4.1452   -5.7366    1.9202 H         1 <0>         0.0000
     36 H16         0.6787   -2.5679    1.7892 H         1 <0>         0.0000
@<TRIPOS>BOND
     1    1   11 1
     2    1   14 2
     3    1   20 1
     4    2   13 1
     5    2   14 1
     6    2   15 2
     7    3   12 1
     8    3   17 am
     9    3   18 2
    10    4   16 am
    11    4   17 am
    12    4   19 2
    13    5    6 1
    14    5    9 1
    15    5   21 1
    16    5   22 1
    17    6   10 1
    18    6   23 1
    19    6   24 1
    20    7    8 1
    21    7   11 1
    22    7   25 1
    23    7   26 1
    24    8   11 1
    25    8   27 1
    26    8   28 1
    27    9   12 1
    28    9   29 1
    29    9   30 1
    30   10   12 1
    31   10   31 1
    32   10   32 1
    33   11   33 1
    34   12   16 1
    35   13   17 1
    36   13   34 1
    37   13   35 1
    38   15   20 1
    39   16   36 1
