@<TRIPOS>MOLECULE
*****
   41    43     0     0     0
SMALL
NO_CHARGES

@<TRIPOS>ATOM
      1 C1         -1.2743   -2.7971    1.5094 C.ar      1 <0>         0.0000
      2 C2         -2.6232   -0.8039    1.4513 C.ar      1 <0>         0.0000
      3 C3         -2.4008   -3.5600    1.8167 C.ar      1 <0>         0.0000
      4 C4         -3.7618   -1.5523    1.7591 C.ar      1 <0>         0.0000
      5 C5         -0.0883    0.1666    5.0140 C.2       1 <0>         0.0000
      6 C6         -1.2369    1.4069    3.7629 C.2       1 <0>         0.0000
      7 C7         -1.3675   -1.4112    1.3253 C.ar      1 <0>         0.0000
      8 C8         -3.6409   -2.9297    1.9415 C.ar      1 <0>         0.0000
      9 C9         -0.9701    0.2752   -1.3947 C.3       1 <0>         0.0000
     10 C10        -0.8949   -1.2161   -1.5543 C.3       1 <0>         0.0000
     11 C11         0.0431   -0.5132   -0.5893 C.3       1 <0>         0.0000
     12 C12         4.2002    0.5841   -0.9412 C.3       1 <0>         0.0000
     13 C13        -0.1087    0.7881    1.5661 C.3       1 <0>         0.0000
     14 C14         2.8040    0.5507   -0.3192 C.3       1 <0>         0.0000
     15 C15        -0.0999   -0.6381    0.9483 C.3       1 <0>         0.0000
     16 N1         -1.1153    1.0609    5.0383 N.2       1 <0>         0.0000
     17 N2          0.4292   -0.0498    3.8083 N.2       1 <0>         0.0000
     18 N3         -0.3217    0.7609    3.0067 N.pl3     1 <0>         0.0000
     19 O1          1.6076    0.0920   -2.6415 O.2       1 <0>         0.0000
     20 O2          2.2663   -1.9121   -1.2331 O.2       1 <0>         0.0000
     21 O3          1.0552   -1.3294    1.4092 O.3       1 <0>         0.0000
     22 S1          1.7395   -0.5433   -1.3113 S.o2      1 <0>         0.0000
     23 Cl1        -5.0627   -3.8794    2.3319 Cl        1 <0>         0.0000
     24 H1         -0.3072   -3.2761    1.4007 H         1 <0>         0.0000
     25 H2         -2.7459    0.2653    1.3086 H         1 <0>         0.0000
     26 H3         -2.3190   -4.6334    1.9562 H         1 <0>         0.0000
     27 H4         -4.7292   -1.0708    1.8600 H         1 <0>         0.0000
     28 H5          0.2900   -0.3366    5.8941 H         1 <0>         0.0000
     29 H6         -1.9531    2.1078    3.3537 H         1 <0>         0.0000
     30 H7         -0.5890    0.8838   -2.2076 H         1 <0>         0.0000
     31 H8         -1.8172    0.6850   -0.8528 H         1 <0>         0.0000
     32 H9         -1.6710   -1.8336   -1.1191 H         1 <0>         0.0000
     33 H10        -0.4601   -1.5971   -2.4723 H         1 <0>         0.0000
     34 H11         4.6445   -0.4138   -0.9465 H         1 <0>         0.0000
     35 H12         4.1668    0.9611   -1.9657 H         1 <0>         0.0000
     36 H13         4.8385    1.2446   -0.3464 H         1 <0>         0.0000
     37 H14         0.8505    1.2644    1.3610 H         1 <0>         0.0000
     38 H15        -0.8913    1.4113    1.1348 H         1 <0>         0.0000
     39 H16         2.3315    1.5369   -0.3368 H         1 <0>         0.0000
     40 H17         2.8093    0.1418    0.6908 H         1 <0>         0.0000
     41 H18         1.0730   -1.2323    2.3864 H         1 <0>         0.0000
@<TRIPOS>BOND
     1    1    3 ar
     2    1    7 ar
     3    1   24 1
     4    2    4 ar
     5    2    7 ar
     6    2   25 1
     7    3    8 ar
     8    3   26 1
     9    4    8 ar
    10    4   27 1
    11    5   16 1
    12    5   17 2
    13    5   28 1
    14    6   16 2
    15    6   18 1
    16    6   29 1
    17    7   15 1
    18    8   23 1
    19    9   10 1
    20    9   11 1
    21    9   30 1
    22    9   31 1
    23   10   11 1
    24   10   32 1
    25   10   33 1
    26   11   15 1
    27   11   22 1
    28   12   14 1
    29   12   34 1
    30   12   35 1
    31   12   36 1
    32   13   15 1
    33   13   18 1
    34   13   37 1
    35   13   38 1
    36   14   22 1
    37   14   39 1
    38   14   40 1
    39   15   21 1
    40   17   18 1
    41   19   22 2
    42   20   22 2
    43   21   41 1
