@<TRIPOS>MOLECULE
*****
   28    30     0     0     0
SMALL
NO_CHARGES

@<TRIPOS>ATOM
      1 C1          1.3646   -3.9163   -1.8180 C.ar      1 <0>         0.0000
      2 C2          0.1186    1.8216    2.1821 C.ar      1 <0>         0.0000
      3 C3          0.4325    1.0734    1.0294 C.ar      1 <0>         0.0000
      4 C4          1.6763   -4.5286   -3.0261 C.ar      1 <0>         0.0000
      5 C5         -1.1532   -0.6922    1.6603 C.ar      1 <0>         0.0000
      6 C6          1.0515   -2.4866   -4.1912 C.ar      1 <0>         0.0000
      7 C7          0.8924   -2.5927   -1.7502 C.ar      1 <0>         0.0000
      8 C8         -0.8181    1.2830    3.0426 C.ar      1 <0>         0.0000
      9 C9         -1.4364    0.0577    2.7849 C.ar      1 <0>         0.0000
     10 C10        -0.1918   -0.1463    0.7912 C.ar      1 <0>         0.0000
     11 C11         0.7481   -1.9019   -2.9638 C.ar      1 <0>         0.0000
     12 C12         1.5141   -3.8010   -4.2098 C.ar      1 <0>         0.0000
     13 C13         0.5970   -2.0586   -0.3887 C.2       1 <0>         0.0000
     14 C14        -2.1073    0.7671    4.7973 C.3       1 <0>         0.0000
     15 O1          0.7649   -2.7012    0.6284 O.2       1 <0>         0.0000
     16 O2         -1.3236    1.8182    4.2101 O.3       1 <0>         0.0000
     17 O3         -2.3480   -0.2202    3.7799 O.3       1 <0>         0.0000
     18 O4          0.1191   -0.7857   -0.4192 O.3       1 <0>         0.0000
     19 F1          0.3086   -0.6303   -3.0000 F         1 <0>         0.0000
     20 Cl1         1.8975   -4.5472   -5.7436 Cl        1 <0>         0.0000
     21 H1          1.4803   -4.4545   -0.8830 H         1 <0>         0.0000
     22 H2          0.5897    2.7783    2.3820 H         1 <0>         0.0000
     23 H3          1.1592    1.4413    0.3127 H         1 <0>         0.0000
     24 H4          2.0382   -5.5506   -3.0567 H         1 <0>         0.0000
     25 H5         -1.6301   -1.6449    1.4654 H         1 <0>         0.0000
     26 H6          0.9234   -1.9129   -5.1025 H         1 <0>         0.0000
     27 H7         -1.5427    0.3082    5.6204 H         1 <0>         0.0000
     28 H8         -3.0613    1.1739    5.1382 H         1 <0>         0.0000
@<TRIPOS>BOND
     1    1    4 ar
     2    1    7 ar
     3    1   21 1
     4    2    3 ar
     5    2    8 ar
     6    2   22 1
     7    3   10 ar
     8    3   23 1
     9    4   12 ar
    10    4   24 1
    11    5    9 ar
    12    5   10 ar
    13    5   25 1
    14    6   11 ar
    15    6   12 ar
    16    6   26 1
    17    7   11 ar
    18    7   13 1
    19    8    9 ar
    20    8   16 1
    21    9   17 1
    22   10   18 1
    23   11   19 1
    24   12   20 1
    25   13   15 2
    26   13   18 1
    27   14   16 1
    28   14   17 1
    29   14   27 1
    30   14   28 1
