@<TRIPOS>MOLECULE
*****
   53    55     0     0     0
SMALL
NO_CHARGES

@<TRIPOS>ATOM
      1 C1          3.9488   -2.2954   12.1910 C.ar      1 <0>         0.0000
      2 C2          2.6587   -1.7035   12.2469 C.ar      1 <0>         0.0000
      3 C3          4.6053   -2.4167   10.9844 C.ar      1 <0>         0.0000
      4 C4          4.6177   -2.0446    8.5127 C.ar      1 <0>         0.0000
      5 C5          2.3631    0.0469    1.6252 C.ar      1 <0>         0.0000
      6 C6          0.3297    0.8044    2.6597 C.ar      1 <0>         0.0000
      7 C7          2.0461   -1.2434   11.0999 C.ar      1 <0>         0.0000
      8 C8          2.8498   -0.3534    2.8647 C.ar      1 <0>         0.0000
      9 C9          0.8027    0.4048    3.9163 C.ar      1 <0>         0.0000
     10 C10         3.9623   -1.5701    7.3987 C.ar      1 <0>         0.0000
     11 C11         3.9990   -1.9515    9.7859 C.ar      1 <0>         0.0000
     12 C12         1.0911    0.6329    1.5028 C.ar      1 <0>         0.0000
     13 C13         2.6986   -1.3553    9.8418 C.ar      1 <0>         0.0000
     14 C14         2.0707   -0.1787    4.0194 C.ar      1 <0>         0.0000
     15 C15         2.6726   -0.9962    7.5625 C.ar      1 <0>         0.0000
     16 C16        -0.7410   -1.1485   -0.0855 C.2       1 <0>         0.0000
     17 C17        -2.0683   -1.2114   -0.2873 C.2       1 <0>         0.0000
     18 C18         1.5116    1.9564   -0.5536 C.2       1 <0>         0.0000
     19 C19        -2.9237   -2.1962    0.4747 C.3       1 <0>         0.0000
     20 C20        -2.8295   -0.3353   -1.2533 C.3       1 <0>         0.0000
     21 C21         2.1389    4.2140   -0.8621 C.3       1 <0>         0.0000
     22 C22         1.8838   -0.4549    6.3899 C.3       1 <0>         0.0000
     23 C23         0.2371   -0.2125   -0.7461 C.3       1 <0>         0.0000
     24 C24         0.5338    1.0225    0.1413 C.3       1 <0>         0.0000
     25 N1          2.0617   -0.8894    8.7285 N.ar      1 <0>         0.0000
     26 O1          2.4619    1.6038   -1.2285 O.2       1 <0>         0.0000
     27 O2          2.6371   -0.6078    5.1923 O.3       1 <0>         0.0000
     28 O3          1.2141    3.2541   -0.3092 O.3       1 <0>         0.0000
     29 H1          4.4157   -2.6523   13.1051 H         1 <0>         0.0000
     30 H2          2.1530   -1.6143   13.2049 H         1 <0>         0.0000
     31 H3          5.5934   -2.8691   10.9357 H         1 <0>         0.0000
     32 H4          5.6063   -2.4909    8.4276 H         1 <0>         0.0000
     33 H5          2.9794   -0.0888    0.7405 H         1 <0>         0.0000
     34 H6         -0.6594    1.2498    2.5878 H         1 <0>         0.0000
     35 H7          1.0602   -0.7882   11.1228 H         1 <0>         0.0000
     36 H8          3.8336   -0.8037    2.9627 H         1 <0>         0.0000
     37 H9          0.1778    0.5538    4.7894 H         1 <0>         0.0000
     38 H10         4.4009   -1.6227    6.4095 H         1 <0>         0.0000
     39 H11        -0.3124   -1.8153    0.6618 H         1 <0>         0.0000
     40 H12        -3.7023   -1.6774    1.0494 H         1 <0>         0.0000
     41 H13        -2.3307   -2.7973    1.1694 H         1 <0>         0.0000
     42 H14        -3.4431   -2.8781   -0.2114 H         1 <0>         0.0000
     43 H15        -3.3634   -0.9465   -1.9922 H         1 <0>         0.0000
     44 H16        -2.1927    0.3674   -1.7939 H         1 <0>         0.0000
     45 H17        -3.5931    0.2464   -0.7206 H         1 <0>         0.0000
     46 H18         1.7544    5.1906   -0.5686 H         1 <0>         0.0000
     47 H19         2.1769    4.1245   -1.9503 H         1 <0>         0.0000
     48 H20         3.1396    4.0547   -0.4534 H         1 <0>         0.0000
     49 H21         0.9324   -0.9976    6.3195 H         1 <0>         0.0000
     50 H22         1.6561    0.6034    6.5707 H         1 <0>         0.0000
     51 H23         1.1803   -0.7319   -0.9402 H         1 <0>         0.0000
     52 H24        -0.1285    0.1332   -1.7171 H         1 <0>         0.0000
     53 H25        -0.3962    1.5741    0.2999 H         1 <0>         0.0000
@<TRIPOS>BOND
     1    1    2 ar
     2    1    3 ar
     3    1   29 1
     4    2    7 ar
     5    2   30 1
     6    3   11 ar
     7    3   31 1
     8    4   10 ar
     9    4   11 ar
    10    4   32 1
    11    5    8 ar
    12    5   12 ar
    13    5   33 1
    14    6    9 ar
    15    6   12 ar
    16    6   34 1
    17    7   13 ar
    18    7   35 1
    19    8   14 ar
    20    8   36 1
    21    9   14 ar
    22    9   37 1
    23   10   15 ar
    24   10   38 1
    25   11   13 ar
    26   12   24 1
    27   13   25 ar
    28   14   27 1
    29   15   22 1
    30   15   25 ar
    31   16   17 2
    32   16   23 1
    33   16   39 1
    34   17   19 1
    35   17   20 1
    36   18   24 1
    37   18   26 2
    38   18   28 1
    39   19   40 1
    40   19   41 1
    41   19   42 1
    42   20   43 1
    43   20   44 1
    44   20   45 1
    45   21   28 1
    46   21   46 1
    47   21   47 1
    48   21   48 1
    49   22   27 1
    50   22   49 1
    51   22   50 1
    52   23   24 1
    53   23   51 1
    54   23   52 1
    55   24   53 1
