@<TRIPOS>MOLECULE
*****
   39    41     0     0     0
SMALL
NO_CHARGES

@<TRIPOS>ATOM
      1 C1         -1.0692    0.0821   -2.6842 C.ar      1 <0>         0.0000
      2 C2         -2.2146    0.6453   -2.1313 C.ar      1 <0>         0.0000
      3 C3         -1.6372   -4.9426    2.4525 C.ar      1 <0>         0.0000
      4 C4         -0.0261   -0.3464   -1.8615 C.ar      1 <0>         0.0000
      5 C5         -2.0296   -4.2992    1.2801 C.ar      1 <0>         0.0000
      6 C6          0.5752   -4.0505    2.2264 C.ar      1 <0>         0.0000
      7 C7         -2.3219    0.8238   -0.7402 C.ar      1 <0>         0.0000
      8 C8         -0.3283   -4.8365    2.9471 C.ar      1 <0>         0.0000
      9 C9         -0.1373   -0.2468   -0.4705 C.ar      1 <0>         0.0000
     10 C10        -1.2646    0.3945    0.0880 C.ar      1 <0>         0.0000
     11 C11        -1.1184   -3.5172    0.5594 C.ar      1 <0>         0.0000
     12 C12         0.1915   -3.3955    1.0505 C.ar      1 <0>         0.0000
     13 C13        -3.5449    1.4359   -0.1610 C.2       1 <0>         0.0000
     14 C14         0.8587   -0.3522    1.8172 C.3       1 <0>         0.0000
     15 C15         0.0021    0.8862    1.9666 C.3       1 <0>         0.0000
     16 C16         0.0920   -5.5621    4.2046 C.3       1 <0>         0.0000
     17 N1          0.8786   -0.7629    0.3929 N.pl3     1 <0>         0.0000
     18 O1         -3.9047    1.3939    1.0008 O.2       1 <0>         0.0000
     19 O2          2.6327   -2.4434    1.0415 O.2       1 <0>         0.0000
     20 O3          1.4646   -2.7069   -1.2026 O.2       1 <0>         0.0000
     21 O4         -1.3064    0.6445    1.4302 O.3       1 <0>         0.0000
     22 O5         -1.4540   -2.8667   -0.5888 O.3       1 <0>         0.0000
     23 O6         -4.2989    2.0749   -1.1109 O.3       1 <0>         0.0000
     24 S1          1.4253   -2.3806    0.2169 S.o2      1 <0>         0.0000
     25 H1         -0.9789   -0.0257   -3.7609 H         1 <0>         0.0000
     26 H2         -3.0293    0.9763   -2.7647 H         1 <0>         0.0000
     27 H3         -2.3680   -5.5393    2.9939 H         1 <0>         0.0000
     28 H4          0.8587   -0.7991   -2.2886 H         1 <0>         0.0000
     29 H5         -3.0512   -4.3987    0.9180 H         1 <0>         0.0000
     30 H6          1.5984   -3.9293    2.5679 H         1 <0>         0.0000
     31 H7          1.8838   -0.1661    2.1464 H         1 <0>         0.0000
     32 H8          0.4303   -1.1435    2.4428 H         1 <0>         0.0000
     33 H9         -0.1390    1.1265    3.0213 H         1 <0>         0.0000
     34 H10         0.4480    1.7487    1.4564 H         1 <0>         0.0000
     35 H11         0.1963   -6.6380    4.0225 H         1 <0>         0.0000
     36 H12         1.0534   -5.1947    4.5729 H         1 <0>         0.0000
     37 H13        -0.6462   -5.4351    5.0032 H         1 <0>         0.0000
     38 H14        -2.4126   -2.9190   -0.7296 H         1 <0>         0.0000
     39 H15        -5.0814    2.4076   -0.6321 H         1 <0>         0.0000
@<TRIPOS>BOND
     1    1    2 ar
     2    1    4 ar
     3    1   25 1
     4    2    7 ar
     5    2   26 1
     6    3    5 ar
     7    3    8 ar
     8    3   27 1
     9    4    9 ar
    10    4   28 1
    11    5   11 ar
    12    5   29 1
    13    6    8 ar
    14    6   12 ar
    15    6   30 1
    16    7   10 ar
    17    7   13 1
    18    8   16 1
    19    9   10 ar
    20    9   17 1
    21   10   21 1
    22   11   12 ar
    23   11   22 1
    24   12   24 1
    25   13   18 2
    26   13   23 1
    27   14   15 1
    28   14   17 1
    29   14   31 1
    30   14   32 1
    31   15   21 1
    32   15   33 1
    33   15   34 1
    34   16   35 1
    35   16   36 1
    36   16   37 1
    37   17   24 1
    38   19   24 2
    39   20   24 2
    40   22   38 1
    41   23   39 1
