@<TRIPOS>MOLECULE
*****
   35    37     0     0     0
SMALL
NO_CHARGES

@<TRIPOS>ATOM
      1 C1         -5.4896   -1.1006    1.4971 C.ar      1 <0>         0.0000
      2 C2         -6.0000   -1.9089    0.4747 C.ar      1 <0>         0.0000
      3 C3         -4.3910   -0.2667    1.2616 C.ar      1 <0>         0.0000
      4 C4         -4.3262   -1.0497   -1.0230 C.ar      1 <0>         0.0000
      5 C5         -5.4217   -1.8925   -0.8013 C.ar      1 <0>         0.0000
      6 C6         -3.7959   -0.2396   -0.0089 C.ar      1 <0>         0.0000
      7 C7          0.4328   -1.5463   -0.6967 C.2       1 <0>         0.0000
      8 C8         -1.0016    0.3155    1.6326 C.2       1 <0>         0.0000
      9 C9          0.9854   -2.6153   -1.2783 C.2       1 <0>         0.0000
     10 C10        -5.9730   -2.7796   -1.9472 C.2       1 <0>         0.0000
     11 C11         1.1252   -0.2165   -0.4652 C.3       1 <0>         0.0000
     12 C12        -1.0087   -1.4392   -0.2226 C.3       1 <0>         0.0000
     13 C13         0.1644    1.9767    0.5095 C.3       1 <0>         0.0000
     14 C14        -0.0208    0.8154   -0.4653 C.3       1 <0>         0.0000
     15 C15        -1.2164    0.0440    0.1407 C.3       1 <0>         0.0000
     16 C16        -2.5924    0.6283   -0.3036 C.3       1 <0>         0.0000
     17 O1         -5.3583   -2.6792   -3.0460 O.co2     1 <0>         0.0000
     18 O2         -1.3793   -0.3208    2.5864 O.2       1 <0>         0.0000
     19 O3         -6.9663   -3.4954   -1.6445 O.co2     1 <0>         0.0000
     20 O4         -0.2644    1.4689    1.7952 O.3       1 <0>         0.0000
     21 H1         -5.9450   -1.1173    2.4864 H         1 <0>         0.0000
     22 H2         -6.8518   -2.5655    0.6303 H         1 <0>         0.0000
     23 H3         -3.9902    0.3460    2.0659 H         1 <0>         0.0000
     24 H4         -3.9076   -1.0490   -2.0277 H         1 <0>         0.0000
     25 H5          0.4217   -3.5334   -1.4284 H         1 <0>         0.0000
     26 H6          2.0170   -2.6052   -1.6255 H         1 <0>         0.0000
     27 H7          1.6076   -0.2218    0.5227 H         1 <0>         0.0000
     28 H8          1.9015   -0.0013   -1.2058 H         1 <0>         0.0000
     29 H9         -1.7023   -1.7442   -1.0101 H         1 <0>         0.0000
     30 H10        -1.2198   -2.0790    0.6390 H         1 <0>         0.0000
     31 H11         1.2027    2.3032    0.6188 H         1 <0>         0.0000
     32 H12        -0.4577    2.8406    0.2515 H         1 <0>         0.0000
     33 H13        -0.2330    1.1633   -1.4805 H         1 <0>         0.0000
     34 H14        -2.5262    0.7742   -1.3874 H         1 <0>         0.0000
     35 H15        -2.7164    1.6243    0.1409 H         1 <0>         0.0000
@<TRIPOS>BOND
     1    1    2 ar
     2    1    3 ar
     3    1   21 1
     4    2    5 ar
     5    2   22 1
     6    3    6 ar
     7    3   23 1
     8    4    5 ar
     9    4    6 ar
    10    4   24 1
    11    5   10 1
    12    6   16 1
    13    7    9 2
    14    7   11 1
    15    7   12 1
    16    8   15 1
    17    8   18 2
    18    8   20 1
    19    9   25 1
    20    9   26 1
    21   10   17 1
    22   10   19 2
    23   11   14 1
    24   11   27 1
    25   11   28 1
    26   12   15 1
    27   12   29 1
    28   12   30 1
    29   13   14 1
    30   13   20 1
    31   13   31 1
    32   13   32 1
    33   14   15 1
    34   14   33 1
    35   15   16 1
    36   16   34 1
    37   16   35 1
