@<TRIPOS>MOLECULE
*****
   39    41     0     0     0
SMALL
NO_CHARGES

@<TRIPOS>ATOM
      1 C1         -1.1901    0.4341    2.4768 C.ar      1 <0>         0.0000
      2 C2         -1.9979    1.2048    1.6438 C.ar      1 <0>         0.0000
      3 C3          4.5500   -4.9649    0.4567 C.ar      1 <0>         0.0000
      4 C4         -0.1596   -0.3260    1.9281 C.ar      1 <0>         0.0000
      5 C5          3.5011   -4.6763    1.3301 C.ar      1 <0>         0.0000
      6 C6          4.4668   -2.7345   -0.4123 C.ar      1 <0>         0.0000
      7 C7         -1.7927    1.2322    0.2554 C.ar      1 <0>         0.0000
      8 C8          5.0534   -4.0040   -0.4318 C.ar      1 <0>         0.0000
      9 C9          0.0929   -0.2907    0.5532 C.ar      1 <0>         0.0000
     10 C10        -0.7198    0.4899   -0.3006 C.ar      1 <0>         0.0000
     11 C11         2.9196   -3.4031    1.3471 C.ar      1 <0>         0.0000
     12 C12         3.4147   -2.4346    0.4571 C.ar      1 <0>         0.0000
     13 C13        -2.7057    2.0276   -0.6055 C.2       1 <0>         0.0000
     14 C14         0.9433   -1.3781   -1.4420 C.3       1 <0>         0.0000
     15 C15         0.6466   -0.0790   -2.1738 C.3       1 <0>         0.0000
     16 C16         6.1722   -4.3320   -1.3938 C.3       1 <0>         0.0000
     17 N1          1.1252   -1.1090   -0.0072 N.pl3     1 <0>         0.0000
     18 O1         -2.7877    1.9986   -1.8193 O.2       1 <0>         0.0000
     19 O2          2.7399   -0.2034    1.7814 O.2       1 <0>         0.0000
     20 O3          3.4352   -0.0600   -0.6545 O.2       1 <0>         0.0000
     21 O4         -0.5366    0.5351   -1.6435 O.3       1 <0>         0.0000
     22 O5          1.8969   -3.0768    2.1880 O.3       1 <0>         0.0000
     23 O6         -3.5219    2.8484    0.1320 O.3       1 <0>         0.0000
     24 S1          2.7536   -0.7701    0.4378 S.o2      1 <0>         0.0000
     25 H1         -1.3686    0.4142    3.5476 H         1 <0>         0.0000
     26 H2         -2.8110    1.7892    2.0574 H         1 <0>         0.0000
     27 H3          4.9852   -5.9616    0.4714 H         1 <0>         0.0000
     28 H4          0.4724   -0.9493    2.5485 H         1 <0>         0.0000
     29 H5          3.1339   -5.4421    2.0114 H         1 <0>         0.0000
     30 H6          4.8213   -1.9496   -1.0739 H         1 <0>         0.0000
     31 H7          0.1077   -2.0784   -1.5407 H         1 <0>         0.0000
     32 H8          1.8365   -1.8550   -1.8487 H         1 <0>         0.0000
     33 H9          1.4930    0.6069   -2.0741 H         1 <0>         0.0000
     34 H10         0.4329   -0.2463   -3.2317 H         1 <0>         0.0000
     35 H11         5.7805   -4.7625   -2.3231 H         1 <0>         0.0000
     36 H12         6.7422   -3.4377   -1.6599 H         1 <0>         0.0000
     37 H13         6.8669   -5.0588   -0.9627 H         1 <0>         0.0000
     38 H14         1.6784   -3.8468    2.7373 H         1 <0>         0.0000
     39 H15        -4.0837    3.2988   -0.5262 H         1 <0>         0.0000
@<TRIPOS>BOND
     1    1    2 ar
     2    1    4 ar
     3    1   25 1
     4    2    7 ar
     5    2   26 1
     6    3    5 ar
     7    3    8 ar
     8    3   27 1
     9    4    9 ar
    10    4   28 1
    11    5   11 ar
    12    5   29 1
    13    6    8 ar
    14    6   12 ar
    15    6   30 1
    16    7   10 ar
    17    7   13 1
    18    8   16 1
    19    9   10 ar
    20    9   17 1
    21   10   21 1
    22   11   12 ar
    23   11   22 1
    24   12   24 1
    25   13   18 2
    26   13   23 1
    27   14   15 1
    28   14   17 1
    29   14   31 1
    30   14   32 1
    31   15   21 1
    32   15   33 1
    33   15   34 1
    34   16   35 1
    35   16   36 1
    36   16   37 1
    37   17   24 1
    38   19   24 2
    39   20   24 2
    40   22   38 1
    41   23   39 1
