@<TRIPOS>MOLECULE
*****
   39    41     0     0     0
SMALL
NO_CHARGES

@<TRIPOS>ATOM
      1 C1         -1.8236   -0.6336    1.6952 C.ar      1 <0>         0.0000
      2 C2         -2.6276    0.1107    0.8351 C.ar      1 <0>         0.0000
      3 C3          3.5727   -4.4750    2.6553 C.ar      1 <0>         0.0000
      4 C4         -0.5036   -0.9104    1.3473 C.ar      1 <0>         0.0000
      5 C5          4.2755   -3.3474    3.0793 C.ar      1 <0>         0.0000
      6 C6          2.3101   -3.1339    1.1198 C.ar      1 <0>         0.0000
      7 C7         -2.1253    0.6093   -0.3740 C.ar      1 <0>         0.0000
      8 C8          2.5785   -4.3924    1.6704 C.ar      1 <0>         0.0000
      9 C9          0.0330   -0.4231    0.1501 C.ar      1 <0>         0.0000
     10 C10        -0.7779    0.3511   -0.7025 C.ar      1 <0>         0.0000
     11 C11         4.0009   -2.0912    2.5265 C.ar      1 <0>         0.0000
     12 C12         3.0030   -1.9967    1.5413 C.ar      1 <0>         0.0000
     13 C13        -3.0935    1.4027   -1.2199 C.2       1 <0>         0.0000
     14 C14         1.6420   -0.5770   -1.6764 C.3       1 <0>         0.0000
     15 C15         1.1195    0.7733   -2.1324 C.3       1 <0>         0.0000
     16 C16         1.8000   -5.6134    1.2371 C.3       1 <0>         0.0000
     17 N1          1.3683   -0.7400   -0.2435 N.pl3     1 <0>         0.0000
     18 O1         -4.2540    1.5474   -0.8909 O.2       1 <0>         0.0000
     19 O2          2.1403    0.4915    1.8969 O.2       1 <0>         0.0000
     20 O3          3.7923    0.0286    0.0122 O.2       1 <0>         0.0000
     21 O4         -0.3020    0.8424   -1.9018 O.3       1 <0>         0.0000
     22 O5          4.6585   -0.9566    2.8911 O.3       1 <0>         0.0000
     23 O6         -2.6380    1.9597   -2.3641 O.3       1 <0>         0.0000
     24 S1          2.6558   -0.3764    0.8433 S.o2      1 <0>         0.0000
     25 H1         -2.2239   -1.0070    2.6327 H         1 <0>         0.0000
     26 H2         -3.6634    0.3275    1.0727 H         1 <0>         0.0000
     27 H3          3.8072   -5.4389    3.1010 H         1 <0>         0.0000
     28 H4          0.1242   -1.4961    2.0100 H         1 <0>         0.0000
     29 H5          5.0468   -3.4394    3.8420 H         1 <0>         0.0000
     30 H6          1.5518   -3.0267    0.3516 H         1 <0>         0.0000
     31 H7          1.1361   -1.3843   -2.2171 H         1 <0>         0.0000
     32 H8          2.7140   -0.6464   -1.8535 H         1 <0>         0.0000
     33 H9          1.6157    1.5809   -1.5849 H         1 <0>         0.0000
     34 H10         1.2459    0.9230   -3.2061 H         1 <0>         0.0000
     35 H11         0.9805   -5.8263    1.9337 H         1 <0>         0.0000
     36 H12         1.3607   -5.4751    0.2454 H         1 <0>         0.0000
     37 H13         2.4389   -6.5010    1.2016 H         1 <0>         0.0000
     38 H14         5.3132   -1.1611    3.5776 H         1 <0>         0.0000
     39 H15        -1.6899    1.7454   -2.4824 H         1 <0>         0.0000
@<TRIPOS>BOND
     1    1    2 ar
     2    1    4 ar
     3    1   25 1
     4    2    7 ar
     5    2   26 1
     6    3    5 ar
     7    3    8 ar
     8    3   27 1
     9    4    9 ar
    10    4   28 1
    11    5   11 ar
    12    5   29 1
    13    6    8 ar
    14    6   12 ar
    15    6   30 1
    16    7   10 ar
    17    7   13 1
    18    8   16 1
    19    9   10 ar
    20    9   17 1
    21   10   21 1
    22   11   12 ar
    23   11   22 1
    24   12   24 1
    25   13   18 2
    26   13   23 1
    27   14   15 1
    28   14   17 1
    29   14   31 1
    30   14   32 1
    31   15   21 1
    32   15   33 1
    33   15   34 1
    34   16   35 1
    35   16   36 1
    36   16   37 1
    37   17   24 1
    38   19   24 2
    39   20   24 2
    40   22   38 1
    41   23   39 1
