@<TRIPOS>MOLECULE
*****
   70    71     0     0     0
SMALL
NO_CHARGES

@<TRIPOS>ATOM
      1 C1         -1.7124    3.4088    0.5573 C.ar      1 <0>         0.0000
      2 C2         -0.6368    3.9145   -0.1932 C.ar      1 <0>         0.0000
      3 C3         -1.7417    2.0592    0.8861 C.ar      1 <0>         0.0000
      4 C4          0.3889    3.0746   -0.6254 C.ar      1 <0>         0.0000
      5 C5         -0.7107    1.1964    0.4688 C.ar      1 <0>         0.0000
      6 C6          0.3462    1.7137   -0.2984 C.ar      1 <0>         0.0000
      7 C7         -0.7052   -0.2204    0.8861 C.2       1 <0>         0.0000
      8 C8          0.5185   -1.0700    0.4960 C.3       1 <0>         0.0000
      9 C9          1.1660   -0.5036   -0.8187 C.3       1 <0>         0.0000
     10 C10         2.5683   -1.0559   -1.0830 C.3       1 <0>         0.0000
     11 C11         1.3794    1.0099   -7.5908 C.3       1 <0>         0.0000
     12 C12        -1.8912   -0.6978   -7.1094 C.3       1 <0>         0.0000
     13 C13        -1.2948   -5.9607    2.2027 C.3       1 <0>         0.0000
     14 C14         4.0350    1.5472    3.7888 C.3       1 <0>         0.0000
     15 C15         0.0647   -2.5319    0.2176 C.3       1 <0>         0.0000
     16 C16         1.4953   -1.0677    1.7023 C.3       1 <0>         0.0000
     17 C17         0.2243   -0.7563   -2.0262 C.3       1 <0>         0.0000
     18 C18         0.5576    0.0762   -3.2719 C.3       1 <0>         0.0000
     19 C19         1.0394    0.0849   -6.4307 C.3       1 <0>         0.0000
     20 C20        -1.4548    0.6253   -6.4974 C.3       1 <0>         0.0000
     21 C21        -0.3950   -0.3125   -4.3993 C.3       1 <0>         0.0000
     22 C22        -0.2948   -3.4006    1.4246 C.3       1 <0>         0.0000
     23 C23         2.0754    0.2854    2.1343 C.3       1 <0>         0.0000
     24 N1         -0.1897    0.5260   -5.6526 N.4       1 <0>         0.0000
     25 O1         -1.6092   -0.6936    1.5654 O.2       1 <0>         0.0000
     26 O2         -2.0999   -4.7346   -0.0270 O.2       1 <0>         0.0000
     27 O3          0.2858   -5.6277    0.0762 O.2       1 <0>         0.0000
     28 O4          3.0694   -0.8785    4.3302 O.2       1 <0>         0.0000
     29 O5          4.5673   -0.5851    2.2788 O.2       1 <0>         0.0000
     30 O6          1.3844    0.9368   -0.7236 O.3       1 <0>         0.0000
     31 S1         -0.8678   -4.9935    0.7420 S.o2      1 <0>         0.0000
     32 S2          3.5205   -0.0734    3.1841 S.o2      1 <0>         0.0000
     33 H1         -2.5057    4.0720    0.8885 H         1 <0>         0.0000
     34 H2         -0.5990    4.9724   -0.4395 H         1 <0>         0.0000
     35 H3         -2.5458    1.6382    1.4822 H         1 <0>         0.0000
     36 H4          1.2314    3.4547   -1.1963 H         1 <0>         0.0000
     37 H5          2.9732   -0.6297   -2.0042 H         1 <0>         0.0000
     38 H6          2.5578   -2.1424   -1.1868 H         1 <0>         0.0000
     39 H7          3.2586   -0.7947   -0.2795 H         1 <0>         0.0000
     40 H8          0.6455    0.9636   -8.3981 H         1 <0>         0.0000
     41 H9          1.4850    2.0504   -7.2657 H         1 <0>         0.0000
     42 H10         2.3417    0.6998   -8.0060 H         1 <0>         0.0000
     43 H11        -1.1685   -1.0833   -7.8321 H         1 <0>         0.0000
     44 H12        -2.0840   -1.4637   -6.3546 H         1 <0>         0.0000
     45 H13        -2.8275   -0.5267   -7.6469 H         1 <0>         0.0000
     46 H14        -1.6403   -6.9279    1.8327 H         1 <0>         0.0000
     47 H15        -0.4038   -6.0876    2.8194 H         1 <0>         0.0000
     48 H16        -2.0944   -5.4532    2.7441 H         1 <0>         0.0000
     49 H17         4.9321    1.3730    4.3862 H         1 <0>         0.0000
     50 H18         4.2667    2.1903    2.9385 H         1 <0>         0.0000
     51 H19         3.2414    1.9642    4.4104 H         1 <0>         0.0000
     52 H20         0.8582   -3.0497   -0.3264 H         1 <0>         0.0000
     53 H21        -0.8149   -2.5108   -0.4281 H         1 <0>         0.0000
     54 H22         2.3130   -1.7558    1.4712 H         1 <0>         0.0000
     55 H23         0.9704   -1.4857    2.5621 H         1 <0>         0.0000
     56 H24         0.2699   -1.8182   -2.2803 H         1 <0>         0.0000
     57 H25        -0.8124   -0.5498   -1.7397 H         1 <0>         0.0000
     58 H26         0.4477    1.1419   -3.0425 H         1 <0>         0.0000
     59 H27         1.5968   -0.0894   -3.5667 H         1 <0>         0.0000
     60 H28         1.8553    0.0561   -5.7083 H         1 <0>         0.0000
     61 H29         0.8478   -0.9360   -6.7621 H         1 <0>         0.0000
     62 H30        -2.2209    1.0243   -5.8290 H         1 <0>         0.0000
     63 H31        -1.2594    1.3749   -7.2649 H         1 <0>         0.0000
     64 H32        -0.2763   -1.3569   -4.6926 H         1 <0>         0.0000
     65 H33        -1.4316   -0.1614   -4.0899 H         1 <0>         0.0000
     66 H34         0.5623   -3.6307    2.0605 H         1 <0>         0.0000
     67 H35        -1.1111   -2.9736    2.0070 H         1 <0>         0.0000
     68 H36         2.4544    0.8809    1.3053 H         1 <0>         0.0000
     69 H37         1.3631    0.8713    2.7204 H         1 <0>         0.0000
     70 H38         0.0018    1.4801   -5.3288 H         1 <0>         0.0000
@<TRIPOS>BOND
     1    1    2 ar
     2    1    3 ar
     3    1   33 1
     4    2    4 ar
     5    2   34 1
     6    3    5 ar
     7    3   35 1
     8    4    6 ar
     9    4   36 1
    10    5    6 ar
    11    5    7 1
    12    6   30 1
    13    7    8 1
    14    7   25 2
    15    8    9 1
    16    8   15 1
    17    8   16 1
    18    9   10 1
    19    9   17 1
    20    9   30 1
    21   10   37 1
    22   10   38 1
    23   10   39 1
    24   11   19 1
    25   11   40 1
    26   11   41 1
    27   11   42 1
    28   12   20 1
    29   12   43 1
    30   12   44 1
    31   12   45 1
    32   13   31 1
    33   13   46 1
    34   13   47 1
    35   13   48 1
    36   14   32 1
    37   14   49 1
    38   14   50 1
    39   14   51 1
    40   15   22 1
    41   15   52 1
    42   15   53 1
    43   16   23 1
    44   16   54 1
    45   16   55 1
    46   17   18 1
    47   17   56 1
    48   17   57 1
    49   18   21 1
    50   18   58 1
    51   18   59 1
    52   19   24 1
    53   19   60 1
    54   19   61 1
    55   20   24 1
    56   20   62 1
    57   20   63 1
    58   21   24 1
    59   21   64 1
    60   21   65 1
    61   22   31 1
    62   22   66 1
    63   22   67 1
    64   23   32 1
    65   23   68 1
    66   23   69 1
    67   24   70 1
    68   26   31 2
    69   27   31 2
    70   28   32 2
    71   29   32 2
