@<TRIPOS>MOLECULE
*****
   26    26     0     0     0
SMALL
NO_CHARGES

@<TRIPOS>ATOM
      1 C1          4.8770    2.9586    0.3629 C.ar      1 <0>         0.0000
      2 C2          6.0727    3.5687    0.7542 C.ar      1 <0>         0.0000
      3 C3          6.7149    1.5653    1.9393 C.ar      1 <0>         0.0000
      4 C4          4.5886    1.6406    0.7445 C.ar      1 <0>         0.0000
      5 C5          7.0014    2.8786    1.5369 C.ar      1 <0>         0.0000
      6 C6          5.5321    0.9540    1.5383 C.ar      1 <0>         0.0000
      7 C7          0.2221    1.3529   -1.4350 C.3       1 <0>         0.0000
      8 C8          1.8332   -0.6100   -1.4002 C.3       1 <0>         0.0000
      9 C9          2.4850    1.6217   -0.4106 C.3       1 <0>         0.0000
     10 C10         1.3424    0.6424   -0.6632 C.3       1 <0>         0.0000
     11 O1          3.4603    0.9677    0.4116 O.3       1 <0>         0.0000
     12 S1          8.5060    3.6952    2.0877 S.3       1 <0>         0.0000
     13 Cl1         5.1978   -0.6913    2.0356 Cl        1 <0>         0.0000
     14 H1          4.1735    3.5167   -0.2437 H         1 <0>         0.0000
     15 H2          6.2829    4.5877    0.4444 H         1 <0>         0.0000
     16 H3          7.4122    1.0197    2.5664 H         1 <0>         0.0000
     17 H4          0.5725    1.6924   -2.4174 H         1 <0>         0.0000
     18 H5         -0.1560    2.2260   -0.8913 H         1 <0>         0.0000
     19 H6         -0.6197    0.6739   -1.6027 H         1 <0>         0.0000
     20 H7          2.2233   -0.3494   -2.3922 H         1 <0>         0.0000
     21 H8          1.0130   -1.3218   -1.5411 H         1 <0>         0.0000
     22 H9          2.6290   -1.1097   -0.8421 H         1 <0>         0.0000
     23 H10         2.9475    1.9248   -1.3607 H         1 <0>         0.0000
     24 H11         2.1188    2.5212    0.1017 H         1 <0>         0.0000
     25 H12         0.9550    0.3402    0.3179 H         1 <0>         0.0000
     26 H13         9.3514    3.1041    1.2133 H         1 <0>         0.0000
@<TRIPOS>BOND
     1    1    2 ar
     2    1    4 ar
     3    1   14 1
     4    2    5 ar
     5    2   15 1
     6    3    5 ar
     7    3    6 ar
     8    3   16 1
     9    4    6 ar
    10    4   11 1
    11    5   12 1
    12    6   13 1
    13    7   10 1
    14    7   17 1
    15    7   18 1
    16    7   19 1
    17    8   10 1
    18    8   20 1
    19    8   21 1
    20    8   22 1
    21    9   10 1
    22    9   11 1
    23    9   23 1
    24    9   24 1
    25   10   25 1
    26   12   26 1
