@<TRIPOS>MOLECULE
*****
   70    71     0     0     0
SMALL
NO_CHARGES

@<TRIPOS>ATOM
      1 C1         -2.7883    3.1928   -1.3795 C.ar      1 <0>         0.0000
      2 C2         -1.6159    3.8733   -1.0057 C.ar      1 <0>         0.0000
      3 C3         -2.8540    1.8143   -1.2303 C.ar      1 <0>         0.0000
      4 C4         -0.5263    3.1844   -0.4769 C.ar      1 <0>         0.0000
      5 C5         -1.7583    1.0974   -0.7106 C.ar      1 <0>         0.0000
      6 C6         -0.6010    1.7958   -0.3244 C.ar      1 <0>         0.0000
      7 C7         -1.8090   -0.3689   -0.6065 C.2       1 <0>         0.0000
      8 C8         -0.4830   -1.0829   -0.2222 C.3       1 <0>         0.0000
      9 C9          0.3010   -0.1657    0.7729 C.3       1 <0>         0.0000
     10 C10        -0.4718    0.0247    2.0869 C.3       1 <0>         0.0000
     11 C11         5.0047    1.2656    4.0137 C.3       1 <0>         0.0000
     12 C12         4.3152   -3.6304    4.2914 C.3       1 <0>         0.0000
     13 C13         1.6839   -2.0267   -4.5855 C.3       1 <0>         0.0000
     14 C14         0.6557   -5.6627    2.2959 C.3       1 <0>         0.0000
     15 C15         0.3085   -1.2163   -1.5559 C.3       1 <0>         0.0000
     16 C16        -0.8703   -2.4634    0.3791 C.3       1 <0>         0.0000
     17 C17         1.7513   -0.6575    0.9762 C.3       1 <0>         0.0000
     18 C18         2.3662   -0.3755    2.3516 C.3       1 <0>         0.0000
     19 C19         4.2202    0.1315    4.6589 C.3       1 <0>         0.0000
     20 C20         3.6043   -2.3176    4.5876 C.3       1 <0>         0.0000
     21 C21         3.7543   -1.0067    2.4255 C.3       1 <0>         0.0000
     22 C22        -0.4295   -2.0092   -2.6443 C.3       1 <0>         0.0000
     23 C23         0.1159   -3.6418    0.3312 C.3       1 <0>         0.0000
     24 N1          4.2668   -1.1517    3.8546 N.4       1 <0>         0.0000
     25 O1         -2.8121   -1.0125   -0.8954 O.2       1 <0>         0.0000
     26 O2          1.5744   -3.7568   -2.5700 O.2       1 <0>         0.0000
     27 O3         -0.1520   -3.9562   -4.4446 O.2       1 <0>         0.0000
     28 O4          2.5103   -3.8942    1.5911 O.2       1 <0>         0.0000
     29 O5          0.5574   -3.0852    2.9747 O.2       1 <0>         0.0000
     30 O6          0.4957    1.1564    0.1769 O.3       1 <0>         0.0000
     31 S1          0.6777   -3.1244   -3.5650 S.o2      1 <0>         0.0000
     32 S2          1.0571   -3.9557    1.8821 S.o2      1 <0>         0.0000
     33 H1         -3.6328    3.7427   -1.7832 H         1 <0>         0.0000
     34 H2         -1.5575    4.9523   -1.1211 H         1 <0>         0.0000
     35 H3         -3.7398    1.2553   -1.5160 H         1 <0>         0.0000
     36 H4          0.3790    3.7019   -0.1740 H         1 <0>         0.0000
     37 H5         -0.0328    0.8499    2.6522 H         1 <0>         0.0000
     38 H6         -0.4407   -0.8756    2.7012 H         1 <0>         0.0000
     39 H7         -1.5189    0.2761    1.9041 H         1 <0>         0.0000
     40 H8          6.0479    0.9850    3.8335 H         1 <0>         0.0000
     41 H9          4.5631    1.6013    3.0734 H         1 <0>         0.0000
     42 H10         5.0095    2.1170    4.6992 H         1 <0>         0.0000
     43 H11         4.2466   -3.9029    3.2367 H         1 <0>         0.0000
     44 H12         5.3651   -3.6008    4.6048 H         1 <0>         0.0000
     45 H13         3.8279   -4.4234    4.8652 H         1 <0>         0.0000
     46 H14         2.3885   -2.6698   -5.1162 H         1 <0>         0.0000
     47 H15         1.0354   -1.5087   -5.2934 H         1 <0>         0.0000
     48 H16         2.2208   -1.3271   -3.9429 H         1 <0>         0.0000
     49 H17         1.2150   -5.8977    3.2030 H         1 <0>         0.0000
     50 H18        -0.4174   -5.7395    2.4780 H         1 <0>         0.0000
     51 H19         0.9728   -6.3067    1.4740 H         1 <0>         0.0000
     52 H20         1.2610   -1.7051   -1.3455 H         1 <0>         0.0000
     53 H21         0.5484   -0.2170   -1.9265 H         1 <0>         0.0000
     54 H22        -1.7577   -2.7852   -0.1674 H         1 <0>         0.0000
     55 H23        -1.2193   -2.3298    1.4041 H         1 <0>         0.0000
     56 H24         1.8146   -1.7273    0.7983 H         1 <0>         0.0000
     57 H25         2.3604   -0.1904    0.1969 H         1 <0>         0.0000
     58 H26         2.4145    0.7024    2.5317 H         1 <0>         0.0000
     59 H27         1.7253   -0.8157    3.1162 H         1 <0>         0.0000
     60 H28         3.1674    0.3811    4.7934 H         1 <0>         0.0000
     61 H29         4.6362   -0.1151    5.6382 H         1 <0>         0.0000
     62 H30         3.6457   -2.0789    5.6516 H         1 <0>         0.0000
     63 H31         2.5600   -2.3481    4.2764 H         1 <0>         0.0000
     64 H32         3.7351   -2.0168    2.0144 H         1 <0>         0.0000
     65 H33         4.4975   -0.4216    1.8802 H         1 <0>         0.0000
     66 H34        -1.1800   -2.6974   -2.2510 H         1 <0>         0.0000
     67 H35        -0.9364   -1.3776   -3.3772 H         1 <0>         0.0000
     68 H36        -0.4426   -4.5693    0.1762 H         1 <0>         0.0000
     69 H37         0.8729   -3.6032   -0.4549 H         1 <0>         0.0000
     70 H38         5.2577   -1.3999    3.7714 H         1 <0>         0.0000
@<TRIPOS>BOND
     1    1    2 ar
     2    1    3 ar
     3    1   33 1
     4    2    4 ar
     5    2   34 1
     6    3    5 ar
     7    3   35 1
     8    4    6 ar
     9    4   36 1
    10    5    6 ar
    11    5    7 1
    12    6   30 1
    13    7    8 1
    14    7   25 2
    15    8    9 1
    16    8   15 1
    17    8   16 1
    18    9   10 1
    19    9   17 1
    20    9   30 1
    21   10   37 1
    22   10   38 1
    23   10   39 1
    24   11   19 1
    25   11   40 1
    26   11   41 1
    27   11   42 1
    28   12   20 1
    29   12   43 1
    30   12   44 1
    31   12   45 1
    32   13   31 1
    33   13   46 1
    34   13   47 1
    35   13   48 1
    36   14   32 1
    37   14   49 1
    38   14   50 1
    39   14   51 1
    40   15   22 1
    41   15   52 1
    42   15   53 1
    43   16   23 1
    44   16   54 1
    45   16   55 1
    46   17   18 1
    47   17   56 1
    48   17   57 1
    49   18   21 1
    50   18   58 1
    51   18   59 1
    52   19   24 1
    53   19   60 1
    54   19   61 1
    55   20   24 1
    56   20   62 1
    57   20   63 1
    58   21   24 1
    59   21   64 1
    60   21   65 1
    61   22   31 1
    62   22   66 1
    63   22   67 1
    64   23   32 1
    65   23   68 1
    66   23   69 1
    67   24   70 1
    68   26   31 2
    69   27   31 2
    70   28   32 2
    71   29   32 2
