@<TRIPOS>MOLECULE
*****
   24    25     0     0     0
SMALL
NO_CHARGES

@<TRIPOS>ATOM
      1 C1          0.8101    1.4541    1.4093 C.ar      1 <0>         0.0000
      2 C2         -0.2649    0.7904    0.8301 C.ar      1 <0>         0.0000
      3 C3          0.7617    1.8930    2.7507 C.ar      1 <0>         0.0000
      4 C4         -1.4542    0.5250    1.5565 C.ar      1 <0>         0.0000
      5 C5         -0.3985    1.6311    3.4503 C.ar      1 <0>         0.0000
      6 C6         -1.4868    0.9644    2.8788 C.ar      1 <0>         0.0000
      7 C7         -2.6135   -0.1819    0.9569 C.2       1 <0>         0.0000
      8 C8         -2.0138    1.4681    5.0048 C.3       1 <0>         0.0000
      9 C9         -3.0068   -1.5230   -2.4168 C.3       1 <0>         0.0000
     10 C10        -3.4640   -1.2228   -1.0011 C.3       1 <0>         0.0000
     11 O1         -3.6547   -0.4314    1.5380 O.2       1 <0>         0.0000
     12 O2         -0.6845    1.9549    4.7577 O.3       1 <0>         0.0000
     13 O3         -2.4901    0.8457    3.7999 O.3       1 <0>         0.0000
     14 O4         -2.3813   -0.5259   -0.3359 O.3       1 <0>         0.0000
     15 H1          1.7053    1.6407    0.8238 H         1 <0>         0.0000
     16 H2         -0.2117    0.4601   -0.2004 H         1 <0>         0.0000
     17 H3          1.5935    2.4123    3.2161 H         1 <0>         0.0000
     18 H4         -1.9865    0.7237    5.8075 H         1 <0>         0.0000
     19 H5         -2.6689    2.3083    5.2586 H         1 <0>         0.0000
     20 H6         -2.7771   -0.6002   -2.9580 H         1 <0>         0.0000
     21 H7         -2.1137   -2.1551   -2.4140 H         1 <0>         0.0000
     22 H8         -3.8003   -2.0503   -2.9563 H         1 <0>         0.0000
     23 H9         -3.6921   -2.1338   -0.4405 H         1 <0>         0.0000
     24 H10        -4.3541   -0.5874   -0.9825 H         1 <0>         0.0000
@<TRIPOS>BOND
     1    1    2 ar
     2    1    3 ar
     3    1   15 1
     4    2    4 ar
     5    2   16 1
     6    3    5 ar
     7    3   17 1
     8    4    6 ar
     9    4    7 1
    10    5    6 ar
    11    5   12 1
    12    6   13 1
    13    7   11 2
    14    7   14 1
    15    8   12 1
    16    8   13 1
    17    8   18 1
    18    8   19 1
    19    9   10 1
    20    9   20 1
    21    9   21 1
    22    9   22 1
    23   10   14 1
    24   10   23 1
    25   10   24 1
