@<TRIPOS>MOLECULE
*****
   39    41     0     0     0
SMALL
NO_CHARGES

@<TRIPOS>ATOM
      1 C1         -1.4347   -1.3998   -0.0658 C.ar      1 <0>         0.0000
      2 C2         -2.0980   -0.4920    0.7574 C.ar      1 <0>         0.0000
      3 C3         -0.4290   -2.7837    4.1054 C.ar      1 <0>         0.0000
      4 C4         -0.0667   -1.2472   -0.3174 C.ar      1 <0>         0.0000
      5 C5         -0.0068   -1.4577    4.1154 C.ar      1 <0>         0.0000
      6 C6          1.1036   -3.2830    2.3313 C.ar      1 <0>         0.0000
      7 C7         -1.4181    0.6321    1.2563 C.ar      1 <0>         0.0000
      8 C8          0.1252   -3.7253    3.2227 C.ar      1 <0>         0.0000
      9 C9          0.6293   -0.1500    0.2022 C.ar      1 <0>         0.0000
     10 C10        -0.0868    0.8600    0.8725 C.ar      1 <0>         0.0000
     11 C11         0.9923   -1.0231    3.2339 C.ar      1 <0>         0.0000
     12 C12         1.5346   -1.9508    2.3305 C.ar      1 <0>         0.0000
     13 C13        -1.9664    1.4040    2.3929 C.2       1 <0>         0.0000
     14 C14         2.6990    1.1747    0.5766 C.3       1 <0>         0.0000
     15 C15         1.6859    2.2867    0.3987 C.3       1 <0>         0.0000
     16 C16        -0.3333   -5.1653    3.2340 C.3       1 <0>         0.0000
     17 N1          2.0554   -0.1199    0.2405 N.pl3     1 <0>         0.0000
     18 O1         -1.3013    1.7678    3.3567 O.2       1 <0>         0.0000
     19 O2          3.9899   -1.0083    1.6653 O.2       1 <0>         0.0000
     20 O3          2.7658   -2.5953    0.1103 O.2       1 <0>         0.0000
     21 O4          0.5109    2.0378    1.1927 O.3       1 <0>         0.0000
     22 O5          1.4249    0.2688    3.2172 O.3       1 <0>         0.0000
     23 O6         -3.3046    1.6000    2.3341 O.3       1 <0>         0.0000
     24 S1          2.7443   -1.4891    1.0689 S.o2      1 <0>         0.0000
     25 H1         -1.9608   -2.2625   -0.4625 H         1 <0>         0.0000
     26 H2         -3.1291   -0.6567    1.0519 H         1 <0>         0.0000
     27 H3         -1.2075   -3.0943    4.7992 H         1 <0>         0.0000
     28 H4          0.4889   -2.0066   -0.8572 H         1 <0>         0.0000
     29 H5         -0.4477   -0.7390    4.8015 H         1 <0>         0.0000
     30 H6          1.5320   -3.9622    1.6016 H         1 <0>         0.0000
     31 H7          3.5496    1.3328   -0.0933 H         1 <0>         0.0000
     32 H8          3.0603    1.1702    1.6043 H         1 <0>         0.0000
     33 H9          2.0932    3.2342    0.7530 H         1 <0>         0.0000
     34 H10         1.3806    2.3929   -0.6498 H         1 <0>         0.0000
     35 H11        -1.4219   -5.2368    3.1346 H         1 <0>         0.0000
     36 H12         0.1167   -5.7317    2.4145 H         1 <0>         0.0000
     37 H13        -0.0576   -5.6611    4.1717 H         1 <0>         0.0000
     38 H14         0.6971    0.8649    3.4919 H         1 <0>         0.0000
     39 H15        -3.5550    2.0338    3.1730 H         1 <0>         0.0000
@<TRIPOS>BOND
     1    1    2 ar
     2    1    4 ar
     3    1   25 1
     4    2    7 ar
     5    2   26 1
     6    3    5 ar
     7    3    8 ar
     8    3   27 1
     9    4    9 ar
    10    4   28 1
    11    5   11 ar
    12    5   29 1
    13    6    8 ar
    14    6   12 ar
    15    6   30 1
    16    7   10 ar
    17    7   13 1
    18    8   16 1
    19    9   10 ar
    20    9   17 1
    21   10   21 1
    22   11   12 ar
    23   11   22 1
    24   12   24 1
    25   13   18 2
    26   13   23 1
    27   14   15 1
    28   14   17 1
    29   14   31 1
    30   14   32 1
    31   15   21 1
    32   15   33 1
    33   15   34 1
    34   16   35 1
    35   16   36 1
    36   16   37 1
    37   17   24 1
    38   19   24 2
    39   20   24 2
    40   22   38 1
    41   23   39 1
