@<TRIPOS>MOLECULE
*****
   62    64     0     0     0
SMALL
NO_CHARGES

@<TRIPOS>ATOM
      1 C1          2.7416    7.6878    0.9168 C.ar      1 <0>         0.0000
      2 C2          4.0607    8.7474    2.6537 C.ar      1 <0>         0.0000
      3 C3          3.2868    8.5703   -0.0247 C.ar      1 <0>         0.0000
      4 C4          4.6019    9.6232    1.7175 C.ar      1 <0>         0.0000
      5 C5          3.1302    7.7752    2.2587 C.ar      1 <0>         0.0000
      6 C6          4.2124    9.5300    0.3761 C.ar      1 <0>         0.0000
      7 C7          0.7773    1.6947   -1.2387 C.3       1 <0>         0.0000
      8 C8         -0.6507    1.4510   -1.7401 C.3       1 <0>         0.0000
      9 C9          1.0206    1.0158    0.1045 C.3       1 <0>         0.0000
     10 C10        -1.4157    1.1533    0.6273 C.3       1 <0>         0.0000
     11 C11         1.2981    1.6352    4.6922 C.3       1 <0>         0.0000
     12 C12         1.3396    1.7733    3.1708 C.3       1 <0>         0.0000
     13 C13        -1.7252    1.8526   -0.7061 C.3       1 <0>         0.0000
     14 C14         0.4391    3.9712    3.7936 C.3       1 <0>         0.0000
     15 C15        -1.7737    3.3817   -0.5113 C.3       1 <0>         0.0000
     16 C16        -3.1076    1.3614   -1.1689 C.3       1 <0>         0.0000
     17 C17        -0.8911    4.4169    3.1781 C.3       1 <0>         0.0000
     18 C18         0.7092    6.0823    5.2004 C.3       1 <0>         0.0000
     19 C19         2.7012    4.6090    4.8008 C.3       1 <0>         0.0000
     20 C20         0.2511    0.9159    2.4970 C.3       1 <0>         0.0000
     21 C21         1.7379    5.9370    2.9069 C.3       1 <0>         0.0000
     22 C22         1.3941    5.1441    4.1886 C.3       1 <0>         0.0000
     23 N1         -0.0175    1.4490    1.1162 N.4       1 <0>         0.0000
     24 O1          1.1289    3.1399    2.8071 O.3       1 <0>         0.0000
     25 O2          2.6598    6.9596    3.2594 O.3       1 <0>         0.0000
     26 S1          0.0379    2.8383    5.2211 S.3       1 <0>         0.0000
     27 Cl1         4.8949   10.6304   -0.8059 Cl        1 <0>         0.0000
     28 H1          2.0194    6.9512    0.5840 H         1 <0>         0.0000
     29 H2          4.3502    8.8049    3.6987 H         1 <0>         0.0000
     30 H3          2.9868    8.5081   -1.0661 H         1 <0>         0.0000
     31 H4          5.3221   10.3752    2.0236 H         1 <0>         0.0000
     32 H5          1.5055    1.2938   -1.9501 H         1 <0>         0.0000
     33 H6          0.9907    2.7655   -1.1532 H         1 <0>         0.0000
     34 H7         -0.8167    2.0020   -2.6706 H         1 <0>         0.0000
     35 H8         -0.7692    0.3872   -1.9817 H         1 <0>         0.0000
     36 H9          0.9364   -0.0718    0.0284 H         1 <0>         0.0000
     37 H10         1.9998    1.2654    0.5152 H         1 <0>         0.0000
     38 H11        -2.1020    1.4796    1.4125 H         1 <0>         0.0000
     39 H12        -1.4869    0.0656    0.5352 H         1 <0>         0.0000
     40 H13         0.9886    0.6346    5.0057 H         1 <0>         0.0000
     41 H14         2.2715    1.8571    5.1295 H         1 <0>         0.0000
     42 H15         2.3302    1.5038    2.7918 H         1 <0>         0.0000
     43 H16        -2.5337    3.6600    0.2257 H         1 <0>         0.0000
     44 H17        -2.0329    3.8709   -1.4544 H         1 <0>         0.0000
     45 H18        -0.8208    3.8138   -0.1860 H         1 <0>         0.0000
     46 H19        -3.8889    1.6246   -0.4480 H         1 <0>         0.0000
     47 H20        -3.1225    0.2754   -1.3085 H         1 <0>         0.0000
     48 H21        -3.3699    1.8238   -2.1248 H         1 <0>         0.0000
     49 H22        -1.4922    3.5430    2.9142 H         1 <0>         0.0000
     50 H23        -0.7313    5.0191    2.2806 H         1 <0>         0.0000
     51 H24        -1.4750    5.0097    3.8843 H         1 <0>         0.0000
     52 H25         1.4134    6.8579    5.5072 H         1 <0>         0.0000
     53 H26        -0.1633    6.5869    4.7755 H         1 <0>         0.0000
     54 H27         0.3966    5.5368    6.0952 H         1 <0>         0.0000
     55 H28         3.3775    5.4424    4.9946 H         1 <0>         0.0000
     56 H29         3.2143    3.9215    4.1215 H         1 <0>         0.0000
     57 H30         2.5105    4.1050    5.7515 H         1 <0>         0.0000
     58 H31        -0.6788    0.9958    3.0631 H         1 <0>         0.0000
     59 H32         0.5399   -0.1342    2.4180 H         1 <0>         0.0000
     60 H33         0.8390    6.3973    2.4788 H         1 <0>         0.0000
     61 H34         2.1847    5.2707    2.1585 H         1 <0>         0.0000
     62 H35         0.0806    2.4704    1.2354 H         1 <0>         0.0000
@<TRIPOS>BOND
     1    1    3 ar
     2    1    5 ar
     3    1   28 1
     4    2    4 ar
     5    2    5 ar
     6    2   29 1
     7    3    6 ar
     8    3   30 1
     9    4    6 ar
    10    4   31 1
    11    5   25 1
    12    6   27 1
    13    7    8 1
    14    7    9 1
    15    7   32 1
    16    7   33 1
    17    8   13 1
    18    8   34 1
    19    8   35 1
    20    9   23 1
    21    9   36 1
    22    9   37 1
    23   10   13 1
    24   10   23 1
    25   10   38 1
    26   10   39 1
    27   11   12 1
    28   11   26 1
    29   11   40 1
    30   11   41 1
    31   12   20 1
    32   12   24 1
    33   12   42 1
    34   13   15 1
    35   13   16 1
    36   14   17 1
    37   14   22 1
    38   14   24 1
    39   14   26 1
    40   15   43 1
    41   15   44 1
    42   15   45 1
    43   16   46 1
    44   16   47 1
    45   16   48 1
    46   17   49 1
    47   17   50 1
    48   17   51 1
    49   18   22 1
    50   18   52 1
    51   18   53 1
    52   18   54 1
    53   19   22 1
    54   19   55 1
    55   19   56 1
    56   19   57 1
    57   20   23 1
    58   20   58 1
    59   20   59 1
    60   21   22 1
    61   21   25 1
    62   21   60 1
    63   21   61 1
    64   23   62 1
