@<TRIPOS>MOLECULE
*****
   25    26     0     0     0
SMALL
NO_CHARGES

@<TRIPOS>ATOM
      1 C1         -2.9502    0.7792   -4.8173 C.ar      1 <0>         0.0000
      2 C2         -4.1029    0.3877   -5.5108 C.ar      1 <0>         0.0000
      3 C3         -3.4547   -1.9379   -5.2743 C.ar      1 <0>         0.0000
      4 C4         -2.0388   -0.1724   -4.3457 C.ar      1 <0>         0.0000
      5 C5         -2.3217   -1.5281   -4.5910 C.ar      1 <0>         0.0000
      6 C6         -4.3472   -0.9634   -5.7345 C.ar      1 <0>         0.0000
      7 C7          2.9237    1.9103   -2.8996 C.3       1 <0>         0.0000
      8 C8          2.2810    3.1867   -2.3423 C.3       1 <0>         0.0000
      9 C9          0.7298    1.4917   -2.6408 C.3       1 <0>         0.0000
     10 C10        -0.5835    1.4594   -3.3991 C.3       1 <0>         0.0000
     11 O1          1.8155    1.2423   -3.5077 O.3       1 <0>         0.0000
     12 O2          0.9147    2.8043   -2.1053 O.3       1 <0>         0.0000
     13 O3         -0.8926    0.0933   -3.6629 O.3       1 <0>         0.0000
     14 F1         -1.4538   -2.4597   -4.1393 F         1 <0>         0.0000
     15 Cl1        -5.7889   -1.4634   -6.6028 Cl        1 <0>         0.0000
     16 H1         -2.7744    1.8357   -4.6516 H         1 <0>         0.0000
     17 H2         -4.8007    1.1362   -5.8712 H         1 <0>         0.0000
     18 H3         -3.6282   -2.9960   -5.4384 H         1 <0>         0.0000
     19 H4          3.6781    2.0892   -3.6674 H         1 <0>         0.0000
     20 H5          3.3526    1.2911   -2.0995 H         1 <0>         0.0000
     21 H6          2.7327    3.5187   -1.4028 H         1 <0>         0.0000
     22 H7          2.3010    4.0073   -3.0679 H         1 <0>         0.0000
     23 H8          0.7207    0.7581   -1.8191 H         1 <0>         0.0000
     24 H9         -0.4735    2.0279   -4.3298 H         1 <0>         0.0000
     25 H10        -1.3600    1.9191   -2.7761 H         1 <0>         0.0000
@<TRIPOS>BOND
     1    1    2 ar
     2    1    4 ar
     3    1   16 1
     4    2    6 ar
     5    2   17 1
     6    3    5 ar
     7    3    6 ar
     8    3   18 1
     9    4    5 ar
    10    4   13 1
    11    5   14 1
    12    6   15 1
    13    7    8 1
    14    7   11 1
    15    7   19 1
    16    7   20 1
    17    8   12 1
    18    8   21 1
    19    8   22 1
    20    9   10 1
    21    9   12 1
    22    9   11 1
    23    9   23 1
    24   10   13 1
    25   10   24 1
    26   10   25 1
