@<TRIPOS>MOLECULE
*****
   25    26     0     0     0
SMALL
NO_CHARGES

@<TRIPOS>ATOM
      1 C1          2.0592   -0.8427   -0.0250 C.ar      1 <0>         0.0000
      2 C2          0.9253   -0.3884    0.6545 C.ar      1 <0>         0.0000
      3 C3          6.5109   -2.5729    3.2059 C.ar      1 <0>         0.0000
      4 C4          3.1025   -1.4388    0.6845 C.ar      1 <0>         0.0000
      5 C5          0.8413   -0.5296    2.0418 C.ar      1 <0>         0.0000
      6 C6          5.4861   -1.9249    2.5118 C.ar      1 <0>         0.0000
      7 C7          6.1884   -3.5238    4.1718 C.ar      1 <0>         0.0000
      8 C8          3.0345   -1.6101    2.0772 C.ar      1 <0>         0.0000
      9 C9          1.8833   -1.1458    2.7315 C.ar      1 <0>         0.0000
     10 C10         4.1565   -2.2549    2.8076 C.ar      1 <0>         0.0000
     11 C11         4.8261   -3.7685    4.3870 C.ar      1 <0>         0.0000
     12 C12         0.9232   -2.0042    4.7218 C.3       1 <0>         0.0000
     13 N1          3.8430   -3.1727    3.7433 N.ar      1 <0>         0.0000
     14 O1          1.8532   -1.2096    4.1324 O.3       1 <0>         0.0000
     15 F1          0.7471   -3.1793    4.0961 F         1 <0>         0.0000
     16 F2         -0.2995   -1.4001    4.7685 F         1 <0>         0.0000
     17 F3          1.3091   -2.2266    5.9822 F         1 <0>         0.0000
     18 Cl1         4.3684   -4.9581    5.6006 Cl        1 <0>         0.0000
     19 H1          2.1296   -0.7370   -1.1038 H         1 <0>         0.0000
     20 H2          0.1108    0.0827    0.1117 H         1 <0>         0.0000
     21 H3          7.5512   -2.3329    3.0035 H         1 <0>         0.0000
     22 H4          3.9739   -1.8091    0.1519 H         1 <0>         0.0000
     23 H5         -0.0181   -0.1604    2.5911 H         1 <0>         0.0000
     24 H6          5.7096   -1.1607    1.7746 H         1 <0>         0.0000
     25 H7          6.9465   -4.0515    4.7397 H         1 <0>         0.0000
@<TRIPOS>BOND
     1    1    2 ar
     2    1    4 ar
     3    1   19 1
     4    2    5 ar
     5    2   20 1
     6    3    6 ar
     7    3    7 ar
     8    3   21 1
     9    4    8 ar
    10    4   22 1
    11    5    9 ar
    12    5   23 1
    13    6   10 ar
    14    6   24 1
    15    7   11 ar
    16    7   25 1
    17    8    9 ar
    18    8   10 1
    19    9   14 1
    20   10   13 ar
    21   11   13 ar
    22   11   18 1
    23   12   14 1
    24   12   15 1
    25   12   16 1
    26   12   17 1
