@<TRIPOS>MOLECULE
*****
   52    56     0     0     0
SMALL
NO_CHARGES

@<TRIPOS>ATOM
      1 C1         -0.4194   -0.4559    2.1853 C.ar      1 <0>         0.0000
      2 C2         -0.9968   -1.5900    1.5784 C.ar      1 <0>         0.0000
      3 C3         -2.4208    3.7320    5.8791 C.ar      1 <0>         0.0000
      4 C4         -1.2002    0.4648    2.8872 C.ar      1 <0>         0.0000
      5 C5         -2.4830    2.5318    5.1632 C.ar      1 <0>         0.0000
      6 C6         -5.5449   -2.5015   -0.4118 C.ar      1 <0>         0.0000
      7 C7         -6.3385   -0.3007    0.1950 C.ar      1 <0>         0.0000
      8 C8         -2.3739   -1.8150    1.6554 C.ar      1 <0>         0.0000
      9 C9         -3.4559    4.6653    5.8135 C.ar      1 <0>         0.0000
     10 C10        -5.8389   -2.2559   -1.7592 C.ar      1 <0>         0.0000
     11 C11        -6.6334   -0.0371   -1.1442 C.ar      1 <0>         0.0000
     12 C12        -4.6342    3.1980    4.2729 C.ar      1 <0>         0.0000
     13 C13        -2.5881    0.2566    2.9984 C.ar      1 <0>         0.0000
     14 C14        -3.5943    2.2493    4.3459 C.ar      1 <0>         0.0000
     15 C15        -3.6882    0.9974    3.5810 C.2       1 <0>         0.0000
     16 C16        -5.7899   -1.5386    0.5727 C.ar      1 <0>         0.0000
     17 C17        -3.1487   -0.8941    2.3665 C.ar      1 <0>         0.0000
     18 C18        -4.5727    4.3804    5.0116 C.ar      1 <0>         0.0000
     19 C19        -6.3781   -1.0213   -2.0951 C.ar      1 <0>         0.0000
     20 C20        -4.8505    0.2850    3.2914 C.2       1 <0>         0.0000
     21 C21        -6.3318    0.5331    3.6090 C.2       1 <0>         0.0000
     22 C22        -8.8440    6.3247    3.4803 C.3       1 <0>         0.0000
     23 C23        -7.7200    7.3294    3.6435 C.3       1 <0>         0.0000
     24 C24        -7.7686    6.0982    4.5193 C.3       1 <0>         0.0000
     25 C25        -5.4643   -1.8148    2.0301 C.3       1 <0>         0.0000
     26 C26        -6.7775    4.9886    4.3000 C.3       1 <0>         0.0000
     27 N1         -4.5138   -0.8635    2.5847 N.pl3     1 <0>         0.0000
     28 O1         -6.8564   -0.2980    4.3879 O.co2     1 <0>         0.0000
     29 O2         -6.8583    1.5042    2.9917 O.co2     1 <0>         0.0000
     30 O3         -5.5703    5.3290    4.9983 O.3       1 <0>         0.0000
     31 F1         -6.6681   -0.7649   -3.4076 F         1 <0>         0.0000
     32 H1          0.6523   -0.2901    2.0951 H         1 <0>         0.0000
     33 H2         -0.3684   -2.2894    1.0317 H         1 <0>         0.0000
     34 H3         -1.5594    3.9351    6.5129 H         1 <0>         0.0000
     35 H4         -0.7385    1.3464    3.3216 H         1 <0>         0.0000
     36 H5         -1.6921    1.7971    5.2739 H         1 <0>         0.0000
     37 H6         -5.1135   -3.4602   -0.1302 H         1 <0>         0.0000
     38 H7         -6.5366    0.4586    0.9504 H         1 <0>         0.0000
     39 H8         -2.8251   -2.6709    1.1611 H         1 <0>         0.0000
     40 H9         -3.4260    5.5956    6.3745 H         1 <0>         0.0000
     41 H10        -5.6495   -2.9946   -2.5326 H         1 <0>         0.0000
     42 H11        -7.0575    0.9144   -1.4518 H         1 <0>         0.0000
     43 H12        -5.4828    2.9672    3.6405 H         1 <0>         0.0000
     44 H13        -9.8368    6.6005    3.8249 H         1 <0>         0.0000
     45 H14        -8.8360    5.6858    2.6015 H         1 <0>         0.0000
     46 H15        -6.9513    7.3628    2.8760 H         1 <0>         0.0000
     47 H16        -7.9500    8.2911    4.0941 H         1 <0>         0.0000
     48 H17        -8.0539    6.2521    5.5575 H         1 <0>         0.0000
     49 H18        -6.3616   -1.7638    2.6512 H         1 <0>         0.0000
     50 H19        -5.0484   -2.8221    2.1362 H         1 <0>         0.0000
     51 H20        -6.5720    4.8682    3.2280 H         1 <0>         0.0000
     52 H21        -7.1658    4.0310    4.6655 H         1 <0>         0.0000
@<TRIPOS>BOND
     1    1    2 ar
     2    1    4 ar
     3    1   32 1
     4    2    8 ar
     5    2   33 1
     6    3    5 ar
     7    3    9 ar
     8    3   34 1
     9    4   13 ar
    10    4   35 1
    11    5   14 ar
    12    5   36 1
    13    6   10 ar
    14    6   16 ar
    15    6   37 1
    16    7   11 ar
    17    7   16 ar
    18    7   38 1
    19    8   17 ar
    20    8   39 1
    21    9   18 ar
    22    9   40 1
    23   10   19 ar
    24   10   41 1
    25   11   19 ar
    26   11   42 1
    27   12   14 ar
    28   12   18 ar
    29   12   43 1
    30   13   15 1
    31   13   17 ar
    32   14   15 1
    33   15   20 2
    34   16   25 1
    35   17   27 1
    36   18   30 1
    37   19   31 1
    38   20   21 1
    39   20   27 1
    40   21   28 1
    41   21   29 2
    42   22   23 1
    43   22   24 1
    44   22   44 1
    45   22   45 1
    46   23   24 1
    47   23   46 1
    48   23   47 1
    49   24   26 1
    50   24   48 1
    51   25   27 1
    52   25   49 1
    53   25   50 1
    54   26   30 1
    55   26   51 1
    56   26   52 1
