@<TRIPOS>MOLECULE
*****
   69    70     0     0     0
SMALL
NO_CHARGES

@<TRIPOS>ATOM
      1 C1         -1.5284    2.8883   -1.0192 C.ar      1 <0>         0.0000
      2 C2         -0.5171    3.4347   -0.2084 C.ar      1 <0>         0.0000
      3 C3         -1.6462    1.5086   -1.1236 C.ar      1 <0>         0.0000
      4 C4          0.3544    2.6116    0.4996 C.ar      1 <0>         0.0000
      5 C5         -0.7668    0.6587   -0.4274 C.ar      1 <0>         0.0000
      6 C6          0.2259    1.2197    0.3972 C.ar      1 <0>         0.0000
      7 C7         -0.8463   -0.8050   -0.5982 C.2       1 <0>         0.0000
      8 C8          0.3213   -1.6154    0.0111 C.3       1 <0>         0.0000
      9 C9          0.7284   -0.9351    1.3609 C.3       1 <0>         0.0000
     10 C10        -0.4390   -0.9341    2.3659 C.3       1 <0>         0.0000
     11 C11         2.3049   -5.0673    4.9537 C.3       1 <0>         0.0000
     12 C12         5.7672   -3.7187    5.0063 C.3       1 <0>         0.0000
     13 C13         1.9396   -3.9418   -4.4191 C.3       1 <0>         0.0000
     14 C14         2.0425   -6.5584   -0.7043 C.3       1 <0>         0.0000
     15 C15         1.4723   -1.4992   -1.0331 C.3       1 <0>         0.0000
     16 C16        -0.1498   -3.0816    0.1977 C.3       1 <0>         0.0000
     17 C17         1.9848   -1.5535    1.9792 C.3       1 <0>         0.0000
     18 C18         2.4300   -0.9775    3.3265 C.3       1 <0>         0.0000
     19 C19         2.6672   -3.5820    4.9970 C.3       1 <0>         0.0000
     20 C20         4.8118   -3.8707    3.8096 C.3       1 <0>         0.0000
     21 C21         3.6867   -1.6993    3.8383 C.3       1 <0>         0.0000
     22 C22         1.1259   -2.1317   -2.3901 C.3       1 <0>         0.0000
     23 C23         0.9532   -4.1472    0.3142 C.3       1 <0>         0.0000
     24 N1          3.5308   -3.1579    3.8908 N.3       1 <0>         0.0000
     25 O1         -1.7295   -1.3394   -1.2605 O.2       1 <0>         0.0000
     26 O2          3.4700   -1.8670   -3.6934 O.2       1 <0>         0.0000
     27 O3          3.1797   -3.8077   -2.0726 O.2       1 <0>         0.0000
     28 O4         -0.4901   -6.4145    0.1509 O.2       1 <0>         0.0000
     29 O5          0.1527   -5.2228   -2.0069 O.2       1 <0>         0.0000
     30 O6          1.1029    0.4562    1.0992 O.3       1 <0>         0.0000
     31 S1          2.6084   -2.9068   -3.1043 S.o2      1 <0>         0.0000
     32 S2          0.4926   -5.6395   -0.6261 S.o2      1 <0>         0.0000
     33 H1         -2.2060    3.5411   -1.5615 H         1 <0>         0.0000
     34 H2         -0.4157    4.5137   -0.1241 H         1 <0>         0.0000
     35 H3         -2.4058    1.0497   -1.7494 H         1 <0>         0.0000
     36 H4          1.1311    3.0210    1.1386 H         1 <0>         0.0000
     37 H5         -0.2565   -0.1790    3.1325 H         1 <0>         0.0000
     38 H6         -0.5239   -1.9042    2.8616 H         1 <0>         0.0000
     39 H7         -1.4006   -0.7106    1.8980 H         1 <0>         0.0000
     40 H8          1.9074   -5.3389    3.9697 H         1 <0>         0.0000
     41 H9          3.1627   -5.7128    5.1644 H         1 <0>         0.0000
     42 H10         1.5387   -5.2867    5.7042 H         1 <0>         0.0000
     43 H11         6.0308   -2.6709    5.1826 H         1 <0>         0.0000
     44 H12         5.3321   -4.1165    5.9288 H         1 <0>         0.0000
     45 H13         6.6954   -4.2682    4.8150 H         1 <0>         0.0000
     46 H14         2.7999   -4.4191   -4.8922 H         1 <0>         0.0000
     47 H15         1.2724   -4.6768   -3.9669 H         1 <0>         0.0000
     48 H16         1.4209   -3.3030   -5.1362 H         1 <0>         0.0000
     49 H17         1.8156   -7.4846   -1.2358 H         1 <0>         0.0000
     50 H18         2.7692   -5.9536   -1.2485 H         1 <0>         0.0000
     51 H19         2.3711   -6.7788    0.3131 H         1 <0>         0.0000
     52 H20         2.3617   -1.9823   -0.6298 H         1 <0>         0.0000
     53 H21         1.7411   -0.4517   -1.1742 H         1 <0>         0.0000
     54 H22        -0.7901   -3.3095   -0.6558 H         1 <0>         0.0000
     55 H23        -0.8096   -3.1483    1.0630 H         1 <0>         0.0000
     56 H24         1.8246   -2.6226    2.1139 H         1 <0>         0.0000
     57 H25         2.8167   -1.4486    1.2769 H         1 <0>         0.0000
     58 H26         2.6570    0.0892    3.2286 H         1 <0>         0.0000
     59 H27         1.6281   -1.0558    4.0664 H         1 <0>         0.0000
     60 H28         3.1055   -3.3360    5.9820 H         1 <0>         0.0000
     61 H29         1.7405   -3.0037    4.9283 H         1 <0>         0.0000
     62 H30         4.6025   -4.9328    3.6482 H         1 <0>         0.0000
     63 H31         5.3139   -3.5231    2.8999 H         1 <0>         0.0000
     64 H32         3.9701   -1.2734    4.8176 H         1 <0>         0.0000
     65 H33         4.5131   -1.4820    3.1520 H         1 <0>         0.0000
     66 H34         0.3975   -2.9388   -2.3163 H         1 <0>         0.0000
     67 H35         0.7736   -1.3991   -3.1190 H         1 <0>         0.0000
     68 H36         1.9074   -3.8445   -0.1149 H         1 <0>         0.0000
     69 H37         1.1171   -4.4895    1.3377 H         1 <0>         0.0000
@<TRIPOS>BOND
     1    1    2 ar
     2    1    3 ar
     3    1   33 1
     4    2    4 ar
     5    2   34 1
     6    3    5 ar
     7    3   35 1
     8    4    6 ar
     9    4   36 1
    10    5    6 ar
    11    5    7 1
    12    6   30 1
    13    7    8 1
    14    7   25 2
    15    8    9 1
    16    8   15 1
    17    8   16 1
    18    9   10 1
    19    9   17 1
    20    9   30 1
    21   10   37 1
    22   10   38 1
    23   10   39 1
    24   11   19 1
    25   11   40 1
    26   11   41 1
    27   11   42 1
    28   12   20 1
    29   12   43 1
    30   12   44 1
    31   12   45 1
    32   13   31 1
    33   13   46 1
    34   13   47 1
    35   13   48 1
    36   14   32 1
    37   14   49 1
    38   14   50 1
    39   14   51 1
    40   15   22 1
    41   15   52 1
    42   15   53 1
    43   16   23 1
    44   16   54 1
    45   16   55 1
    46   17   18 1
    47   17   56 1
    48   17   57 1
    49   18   21 1
    50   18   58 1
    51   18   59 1
    52   19   24 1
    53   19   60 1
    54   19   61 1
    55   20   24 1
    56   20   62 1
    57   20   63 1
    58   21   24 1
    59   21   64 1
    60   21   65 1
    61   22   31 1
    62   22   66 1
    63   22   67 1
    64   23   32 1
    65   23   68 1
    66   23   69 1
    67   26   31 2
    68   27   31 2
    69   28   32 2
    70   29   32 2
