@<TRIPOS>MOLECULE
*****
   57    60     0     0     0
SMALL
NO_CHARGES

@<TRIPOS>ATOM
      1 C1          2.9362    8.9962    5.9557 C.ar      1 <0>         0.0000
      2 C2          0.7172    8.5652    6.8196 C.ar      1 <0>         0.0000
      3 C3         -2.2491    6.3223   -1.1553 C.ar      1 <0>         0.0000
      4 C4          2.8570    7.8517    5.1781 C.ar      1 <0>         0.0000
      5 C5          0.6293    7.4102    6.0401 C.ar      1 <0>         0.0000
      6 C6         -1.9003    5.8372    0.1027 C.ar      1 <0>         0.0000
      7 C7          0.7793    6.0452   -3.1305 C.2       1 <0>         0.0000
      8 C8          0.3909    5.3842   -0.6255 C.ar      1 <0>         0.0000
      9 C9         -0.1041    6.5758   -4.0561 C.2       1 <0>         0.0000
     10 C10         1.3159   12.0912    9.0207 C.2       1 <0>         0.0000
     11 C11         0.0548    5.8763   -1.9070 C.ar      1 <0>         0.0000
     12 C12         1.8649    9.3699    6.7927 C.ar      1 <0>         0.0000
     13 C13        -1.2744    6.3343   -2.1616 C.ar      1 <0>         0.0000
     14 C14         1.7036    7.0444    5.2135 C.ar      1 <0>         0.0000
     15 C15        -0.5915    5.3699    0.3605 C.ar      1 <0>         0.0000
     16 C16         2.5715   12.3931    8.5896 C.2       1 <0>         0.0000
     17 C17         1.9716   10.5766    7.6003 C.2       1 <0>         0.0000
     18 C18        -2.7179    7.2211   -5.6392 C.2       1 <0>         0.0000
     19 C19         3.7603   14.4425    7.7207 C.3       1 <0>         0.0000
     20 C20        -2.5585    8.8747   -3.7285 C.3       1 <0>         0.0000
     21 C21         3.4525   13.5531    8.9371 C.3       1 <0>         0.0000
     22 C22         0.8585    3.9464    3.4325 C.3       1 <0>         0.0000
     23 C23         0.5792    5.0749    4.4133 C.3       1 <0>         0.0000
     24 C24         0.9031    4.4085    1.9804 C.3       1 <0>         0.0000
     25 C25        -2.5375    7.3788   -4.0800 C.3       1 <0>         0.0000
     26 N1          2.9739   11.4138    7.6821 N.2       1 <0>         0.0000
     27 N2         -1.3465    6.7414   -3.4842 N.pl3     1 <0>         0.0000
     28 O1         -1.6771    7.1304   -6.3448 O.co2     1 <0>         0.0000
     29 O2         -3.9246    7.2774   -5.9862 O.co2     1 <0>         0.0000
     30 O3          0.9137   10.9272    8.3977 O.3       1 <0>         0.0000
     31 O4          1.7291    5.9381    4.4246 O.3       1 <0>         0.0000
     32 O5         -0.3865    4.9024    1.6565 O.3       1 <0>         0.0000
     33 H1          3.8235    9.6209    5.9273 H         1 <0>         0.0000
     34 H2         -0.1184    8.8444    7.4540 H         1 <0>         0.0000
     35 H3         -3.2575    6.6802   -1.3418 H         1 <0>         0.0000
     36 H4          3.6737    7.5572    4.5256 H         1 <0>         0.0000
     37 H5         -0.2736    6.8124    6.0777 H         1 <0>         0.0000
     38 H6         -2.6272    5.8068    0.9096 H         1 <0>         0.0000
     39 H7          1.8163    5.7949   -3.3186 H         1 <0>         0.0000
     40 H8          1.3987    5.0312   -0.4326 H         1 <0>         0.0000
     41 H9          0.0044    6.8309   -5.1013 H         1 <0>         0.0000
     42 H10         0.6124   12.5430    9.7036 H         1 <0>         0.0000
     43 H11         4.2310   13.8549    6.9278 H         1 <0>         0.0000
     44 H12         4.4373   15.2584    7.9964 H         1 <0>         0.0000
     45 H13         2.8421   14.8800    7.3151 H         1 <0>         0.0000
     46 H14        -1.7137    9.3811   -4.2078 H         1 <0>         0.0000
     47 H15        -2.4909    9.0379   -2.6457 H         1 <0>         0.0000
     48 H16        -3.4865    9.3172   -4.1016 H         1 <0>         0.0000
     49 H17         2.9738   14.1433    9.7264 H         1 <0>         0.0000
     50 H18         4.3924   13.1686    9.3515 H         1 <0>         0.0000
     51 H19         1.8101    3.4689    3.6925 H         1 <0>         0.0000
     52 H20         0.0679    3.1953    3.5409 H         1 <0>         0.0000
     53 H21        -0.3056    5.6386    4.0992 H         1 <0>         0.0000
     54 H22         0.4151    4.6798    5.4246 H         1 <0>         0.0000
     55 H23         1.1666    3.5645    1.3271 H         1 <0>         0.0000
     56 H24         1.6622    5.1913    1.8487 H         1 <0>         0.0000
     57 H25        -3.4028    6.8908   -3.6264 H         1 <0>         0.0000
@<TRIPOS>BOND
     1    1    4 ar
     2    1   12 ar
     3    1   33 1
     4    2    5 ar
     5    2   12 ar
     6    2   34 1
     7    3    6 ar
     8    3   13 ar
     9    3   35 1
    10    4   14 ar
    11    4   36 1
    12    5   14 ar
    13    5   37 1
    14    6   15 ar
    15    6   38 1
    16    7    9 2
    17    7   11 1
    18    7   39 1
    19    8   11 ar
    20    8   15 ar
    21    8   40 1
    22    9   27 1
    23    9   41 1
    24   10   16 2
    25   10   30 1
    26   10   42 1
    27   11   13 ar
    28   12   17 1
    29   13   27 1
    30   14   31 1
    31   15   32 1
    32   16   21 1
    33   16   26 1
    34   17   26 2
    35   17   30 1
    36   18   25 1
    37   18   28 1
    38   18   29 2
    39   19   21 1
    40   19   43 1
    41   19   44 1
    42   19   45 1
    43   20   25 1
    44   20   46 1
    45   20   47 1
    46   20   48 1
    47   21   49 1
    48   21   50 1
    49   22   23 1
    50   22   24 1
    51   22   51 1
    52   22   52 1
    53   23   31 1
    54   23   53 1
    55   23   54 1
    56   24   32 1
    57   24   55 1
    58   24   56 1
    59   25   27 1
    60   25   57 1
