@<TRIPOS>MOLECULE
*****
   18    18     0     0     0
SMALL
NO_CHARGES

@<TRIPOS>ATOM
      1 C1          2.9042    0.6363    2.8457 C.1       1 <0>         0.0000
      2 C2          4.3554   -3.5862    2.0192 C.2       1 <0>         0.0000
      3 C3          4.7994   -3.2775    0.7620 C.2       1 <0>         0.0000
      4 C4          3.1897   -2.8322    2.3628 C.2       1 <0>         0.0000
      5 C5          2.7615   -1.9701    1.3847 C.2       1 <0>         0.0000
      6 C6          2.1356    0.4648    1.6087 C.3       1 <0>         0.0000
      7 C7          1.6275   -0.9865    1.4093 C.3       1 <0>         0.0000
      8 N1          3.5115    0.7687    3.8281 N.1       1 <0>         0.0000
      9 N2          0.9126   -1.0177    0.1237 N.3       1 <0>         0.0000
     10 S1          3.8068   -2.0848   -0.0099 S.3       1 <0>         0.0000
     11 Br1         2.3334   -3.0367    4.0540 Br        1 <0>         0.0000
     12 H1          4.8211   -4.3114    2.6761 H         1 <0>         0.0000
     13 H2          5.6472   -3.6977    0.2358 H         1 <0>         0.0000
     14 H3          1.2843    1.1547    1.6324 H         1 <0>         0.0000
     15 H4          2.7618    0.7433    0.7560 H         1 <0>         0.0000
     16 H5          0.9968   -1.2445    2.2708 H         1 <0>         0.0000
     17 H6          0.0830   -0.4273    0.1710 H         1 <0>         0.0000
     18 H7          0.5922   -1.9667   -0.0625 H         1 <0>         0.0000
@<TRIPOS>BOND
     1    1    6 1
     2    1    8 3
     3    2    3 2
     4    2    4 1
     5    2   12 1
     6    3   10 1
     7    3   13 1
     8    4    5 2
     9    4   11 1
    10    5    7 1
    11    5   10 1
    12    6    7 1
    13    6   14 1
    14    6   15 1
    15    7    9 1
    16    7   16 1
    17    9   17 1
    18    9   18 1
