@<TRIPOS>MOLECULE
*****
   36    38     0     0     0
SMALL
NO_CHARGES

@<TRIPOS>ATOM
      1 C1         -5.0757   -0.5265   -4.2868 C.ar      1 <0>         0.0000
      2 C2         -7.0710   -1.8208   -4.3597 C.ar      1 <0>         0.0000
      3 C3         -6.3990   -0.6500   -4.7253 C.ar      1 <0>         0.0000
      4 C4         -4.4802   -1.5347   -3.5246 C.ar      1 <0>         0.0000
      5 C5         -5.2603   -2.6685   -3.2055 C.ar      1 <0>         0.0000
      6 C6         -0.7292    0.8894   -2.4892 C.3       1 <0>         0.0000
      7 C7         -0.2044    0.9500   -3.9110 C.3       1 <0>         0.0000
      8 C8         -4.2613   -3.5698   -0.9786 C.3       1 <0>         0.0000
      9 C9         -5.5347   -4.3401   -1.2642 C.3       1 <0>         0.0000
     10 C10        -0.9263   -0.2819   -3.4239 C.3       1 <0>         0.0000
     11 C11        -4.7023   -3.8204   -2.4089 C.3       1 <0>         0.0000
     12 C12        -7.0688    0.4251   -5.5462 C.3       1 <0>         0.0000
     13 C13        -3.9419   -4.8405   -3.2452 C.3       1 <0>         0.0000
     14 C14        -3.0512   -1.3792   -3.0386 C.3       1 <0>         0.0000
     15 N1         -6.5282   -2.7987   -3.6245 N.ar      1 <0>         0.0000
     16 N2         -2.2618   -0.5101   -3.9184 N.3       1 <0>         0.0000
     17 H1         -4.4905    0.3559   -4.5328 H         1 <0>         0.0000
     18 H2         -8.1028   -1.9789   -4.6754 H         1 <0>         0.0000
     19 H3         -0.0156    0.7875   -1.6769 H         1 <0>         0.0000
     20 H4         -1.6115    1.4801   -2.2622 H         1 <0>         0.0000
     21 H5         -0.7403    1.5838   -4.6107 H         1 <0>         0.0000
     22 H6          0.8680    0.8868   -4.0703 H         1 <0>         0.0000
     23 H7         -4.3630   -2.5643   -0.5796 H         1 <0>         0.0000
     24 H8         -3.3939   -4.1126   -0.6110 H         1 <0>         0.0000
     25 H9         -5.5366   -5.4126   -1.0894 H         1 <0>         0.0000
     26 H10        -6.4842   -3.8500   -1.0758 H         1 <0>         0.0000
     27 H11        -0.3078   -1.1633   -3.2246 H         1 <0>         0.0000
     28 H12        -6.5081    0.6310   -6.4646 H         1 <0>         0.0000
     29 H13        -8.0836    0.1321   -5.8307 H         1 <0>         0.0000
     30 H14        -7.1358    1.3660   -4.9885 H         1 <0>         0.0000
     31 H15        -3.5551   -5.6505   -2.6174 H         1 <0>         0.0000
     32 H16        -3.0921   -4.3865   -3.7682 H         1 <0>         0.0000
     33 H17        -4.6050   -5.2790   -3.9985 H         1 <0>         0.0000
     34 H18        -3.0557   -0.9136   -2.0449 H         1 <0>         0.0000
     35 H19        -2.5904   -2.3670   -2.9024 H         1 <0>         0.0000
     36 H20        -2.2154   -0.9256   -4.8481 H         1 <0>         0.0000
@<TRIPOS>BOND
     1    1    3 ar
     2    1    4 ar
     3    1   17 1
     4    2    3 ar
     5    2   15 ar
     6    2   18 1
     7    3   12 1
     8    4    5 ar
     9    4   14 1
    10    5   11 1
    11    5   15 ar
    12    6    7 1
    13    6   10 1
    14    6   19 1
    15    6   20 1
    16    7   10 1
    17    7   21 1
    18    7   22 1
    19    8    9 1
    20    8   11 1
    21    8   23 1
    22    8   24 1
    23    9   11 1
    24    9   25 1
    25    9   26 1
    26   10   16 1
    27   10   27 1
    28   11   13 1
    29   12   28 1
    30   12   29 1
    31   12   30 1
    32   13   31 1
    33   13   32 1
    34   13   33 1
    35   14   16 1
    36   14   34 1
    37   14   35 1
    38   16   36 1
