@<TRIPOS>MOLECULE
*****
   26    27     0     0     0
SMALL
NO_CHARGES

@<TRIPOS>ATOM
      1 C1          3.9103   -0.2189   -0.9549 C.ar      1 <0>         0.0000
      2 C2          4.3812   -1.9611   -2.5746 C.ar      1 <0>         0.0000
      3 C3          0.6826   -1.6021   -0.0118 C.ar      1 <0>         0.0000
      4 C4          4.5341    0.7170   -1.7818 C.ar      1 <0>         0.0000
      5 C5          5.0186   -1.0307   -3.3975 C.ar      1 <0>         0.0000
      6 C6         -0.3263   -0.8922    0.6323 C.ar      1 <0>         0.0000
      7 C7          1.0726   -0.7668    2.6090 C.ar      1 <0>         0.0000
      8 C8          2.1020   -1.4736    1.9638 C.ar      1 <0>         0.0000
      9 C9          3.8297   -1.5586   -1.3516 C.ar      1 <0>         0.0000
     10 C10         1.8945   -1.8948    0.6309 C.ar      1 <0>         0.0000
     11 C11         5.0877    0.3049   -2.9959 C.ar      1 <0>         0.0000
     12 C12        -0.1181   -0.4813    1.9513 C.ar      1 <0>         0.0000
     13 C13         3.3452   -1.6626    2.8287 C.2       1 <0>         0.0000
     14 O1          3.3865   -1.2098    3.9547 O.2       1 <0>         0.0000
     15 O2          4.3995   -2.3270    2.3272 O.3       1 <0>         0.0000
     16 S1          3.0881   -2.8385   -0.3304 S.3       1 <0>         0.0000
     17 Cl1         5.8746    1.4799   -4.0314 Cl        1 <0>         0.0000
     18 Cl2        -1.3753    0.4042    2.7859 Cl        1 <0>         0.0000
     19 H1          3.4855    0.1073   -0.0112 H         1 <0>         0.0000
     20 H2          4.3107   -2.9976   -2.8935 H         1 <0>         0.0000
     21 H3          0.5350   -1.9342   -1.0347 H         1 <0>         0.0000
     22 H4          4.5956    1.7577   -1.4795 H         1 <0>         0.0000
     23 H5          5.4466   -1.3395   -4.3459 H         1 <0>         0.0000
     24 H6         -1.2589   -0.6688    0.1242 H         1 <0>         0.0000
     25 H7          1.2380   -0.4452    3.6308 H         1 <0>         0.0000
     26 H8          4.2131   -2.6448    1.4106 H         1 <0>         0.0000
@<TRIPOS>BOND
     1    1    4 ar
     2    1    9 ar
     3    1   19 1
     4    2    5 ar
     5    2    9 ar
     6    2   20 1
     7    3    6 ar
     8    3   10 ar
     9    3   21 1
    10    4   11 ar
    11    4   22 1
    12    5   11 ar
    13    5   23 1
    14    6   12 ar
    15    6   24 1
    16    7    8 ar
    17    7   12 ar
    18    7   25 1
    19    8   10 ar
    20    8   13 1
    21    9   16 1
    22   10   16 1
    23   11   17 1
    24   12   18 1
    25   13   14 2
    26   13   15 1
    27   15   26 1
