@<TRIPOS>MOLECULE
*****
   70    74     0     0     0
SMALL
NO_CHARGES

@<TRIPOS>ATOM
      1 C1         -4.2824    0.8000   -3.1517 C.ar      1 <0>         0.0000
      2 C2         -2.5932    7.6406   -1.2644 C.ar      1 <0>         0.0000
      3 C3         -4.1192    2.1728   -3.3127 C.ar      1 <0>         0.0000
      4 C4         -4.3305    0.2299   -1.8746 C.ar      1 <0>         0.0000
      5 C5         -2.9454    6.6040   -2.1296 C.ar      1 <0>         0.0000
      6 C6         -4.0891    2.4740   -0.9099 C.ar      1 <0>         0.0000
      7 C7         -2.8346    7.5219    0.1008 C.ar      1 <0>         0.0000
      8 C8         -4.0101    3.0327   -2.1970 C.ar      1 <0>         0.0000
      9 C9         -4.2311    1.0920   -0.7825 C.ar      1 <0>         0.0000
     10 C10        -3.5047    6.3487    0.5535 C.ar      1 <0>         0.0000
     11 C11        -3.5126    5.4460   -1.5751 C.ar      1 <0>         0.0000
     12 C12        -2.8391    8.4841    2.3328 C.2       1 <0>         0.0000
     13 C13        -3.2573    4.6818    3.6809 C.3       1 <0>         0.0000
     14 C14        -5.6750    5.0433    3.0784 C.3       1 <0>         0.0000
     15 C15        -3.6822    3.4038    4.4086 C.3       1 <0>         0.0000
     16 C16        -5.9990    3.7418    3.8147 C.3       1 <0>         0.0000
     17 C17        -1.7480    1.5015    1.3211 C.3       1 <0>         0.0000
     18 C18        -1.7862   -0.7815    0.4447 C.3       1 <0>         0.0000
     19 C19        -0.4007    1.1825    1.9640 C.3       1 <0>         0.0000
     20 C20        -0.4349   -1.0091    1.1196 C.3       1 <0>         0.0000
     21 C21        -4.0254    7.5585    2.5756 C.3       1 <0>         0.0000
     22 C22        -4.2353    5.0272    2.5473 C.3       1 <0>         0.0000
     23 C23        -5.3197    8.2955    2.1742 C.3       1 <0>         0.0000
     24 C24        -1.3076    9.4025    0.6622 C.3       1 <0>         0.0000
     25 C25        -5.4209    2.3359    5.6880 C.3       1 <0>         0.0000
     26 N1         -3.7966    5.3309   -0.2716 N.ar      1 <0>         0.0000
     27 N2         -2.3564    8.4611    1.0437 N.am      1 <0>         0.0000
     28 N3         -3.8437    6.2811    1.8819 N.pl3     1 <0>         0.0000
     29 N4         -5.0525    3.5180    4.9147 N.3       1 <0>         0.0000
     30 N5         -2.5102    0.2453    1.2144 N.pl3     1 <0>         0.0000
     31 N6         -3.8197    4.3909   -2.4428 N.pl3     1 <0>         0.0000
     32 O1         -2.4018    9.2273    3.2086 O.2       1 <0>         0.0000
     33 O2         -4.6686    1.4064    1.8064 O.2       1 <0>         0.0000
     34 O3         -4.6997   -0.9589    0.8273 O.2       1 <0>         0.0000
     35 O4          0.3137    0.2004    1.2177 O.3       1 <0>         0.0000
     36 S1         -4.1598    0.4003    0.8697 S.o2      1 <0>         0.0000
     37 H1         -4.3711    0.1667   -4.0301 H         1 <0>         0.0000
     38 H2         -2.1007    8.5217   -1.6614 H         1 <0>         0.0000
     39 H3         -4.0747    2.5926   -4.3160 H         1 <0>         0.0000
     40 H4         -4.4634   -0.8359   -1.7259 H         1 <0>         0.0000
     41 H5         -2.7425    6.6781   -3.1938 H         1 <0>         0.0000
     42 H6         -4.0538    3.1145   -0.0429 H         1 <0>         0.0000
     43 H7         -3.2188    5.5017    4.4067 H         1 <0>         0.0000
     44 H8         -2.2481    4.5632    3.2691 H         1 <0>         0.0000
     45 H9         -6.3742    5.1854    2.2474 H         1 <0>         0.0000
     46 H10        -5.8071    5.8735    3.7805 H         1 <0>         0.0000
     47 H11        -3.5826    2.5353    3.7345 H         1 <0>         0.0000
     48 H12        -3.0142    3.2347    5.2609 H         1 <0>         0.0000
     49 H13        -7.0055    3.8128    4.2421 H         1 <0>         0.0000
     50 H14        -5.9997    2.8990    3.1050 H         1 <0>         0.0000
     51 H15        -2.3033    2.2006    1.9474 H         1 <0>         0.0000
     52 H16        -1.5895    1.9539    0.3310 H         1 <0>         0.0000
     53 H17        -1.6337   -0.4591   -0.5965 H         1 <0>         0.0000
     54 H18        -2.3701   -1.7033    0.4539 H         1 <0>         0.0000
     55 H19         0.2273    2.0767    1.9825 H         1 <0>         0.0000
     56 H20        -0.5598    0.8333    2.9949 H         1 <0>         0.0000
     57 H21        -0.5940   -1.4367    2.1204 H         1 <0>         0.0000
     58 H22         0.1692   -1.7009    0.5276 H         1 <0>         0.0000
     59 H23        -4.0333    7.3681    3.6475 H         1 <0>         0.0000
     60 H24        -4.1716    4.2508    1.7854 H         1 <0>         0.0000
     61 H25        -5.3285    8.5050    1.1002 H         1 <0>         0.0000
     62 H26        -5.3881    9.2442    2.7150 H         1 <0>         0.0000
     63 H27        -6.1969    7.6912    2.4120 H         1 <0>         0.0000
     64 H28        -1.6907   10.1602   -0.0306 H         1 <0>         0.0000
     65 H29        -0.4781    8.8692    0.1879 H         1 <0>         0.0000
     66 H30        -0.9601    9.8970    1.5679 H         1 <0>         0.0000
     67 H31        -4.7309    2.2171    6.5302 H         1 <0>         0.0000
     68 H32        -5.4023    1.4068    5.0901 H         1 <0>         0.0000
     69 H33        -6.4301    2.4617    6.0941 H         1 <0>         0.0000
     70 H34        -3.6579    4.6139   -3.4158 H         1 <0>         0.0000
@<TRIPOS>BOND
     1    1    3 ar
     2    1    4 ar
     3    1   37 1
     4    2    5 ar
     5    2    7 ar
     6    2   38 1
     7    3    8 ar
     8    3   39 1
     9    4    9 ar
    10    4   40 1
    11    5   11 ar
    12    5   41 1
    13    6    8 ar
    14    6    9 ar
    15    6   42 1
    16    7   10 ar
    17    7   27 1
    18    8   31 1
    19    9   36 1
    20   10   26 ar
    21   10   28 1
    22   11   26 ar
    23   11   31 1
    24   12   21 1
    25   12   27 am
    26   12   32 2
    27   13   15 1
    28   13   22 1
    29   13   43 1
    30   13   44 1
    31   14   16 1
    32   14   22 1
    33   14   45 1
    34   14   46 1
    35   15   29 1
    36   15   47 1
    37   15   48 1
    38   16   29 1
    39   16   49 1
    40   16   50 1
    41   17   19 1
    42   17   30 1
    43   17   51 1
    44   17   52 1
    45   18   20 1
    46   18   30 1
    47   18   53 1
    48   18   54 1
    49   19   35 1
    50   19   55 1
    51   19   56 1
    52   20   35 1
    53   20   57 1
    54   20   58 1
    55   21   23 1
    56   21   28 1
    57   21   59 1
    58   22   28 1
    59   22   60 1
    60   23   61 1
    61   23   62 1
    62   23   63 1
    63   24   27 1
    64   24   64 1
    65   24   65 1
    66   24   66 1
    67   25   29 1
    68   25   67 1
    69   25   68 1
    70   25   69 1
    71   30   36 1
    72   31   70 1
    73   33   36 2
    74   34   36 2
