@<TRIPOS>MOLECULE
*****
   15    15     0     0     0
SMALL
NO_CHARGES

@<TRIPOS>ATOM
      1 C1          0.0233   -0.5389    1.2814 C.ar      1 <0>         0.0000
      2 C2          1.3205   -0.1734    1.6560 C.ar      1 <0>         0.0000
      3 C3          1.8311   -0.6909    2.8583 C.ar      1 <0>         0.0000
      4 C4         -0.6992   -1.3937    2.1116 C.ar      1 <0>         0.0000
      5 C5          0.9985   -1.5431    3.6031 C.ar      1 <0>         0.0000
      6 C6          2.0651    0.7589    0.7183 C.2       1 <0>         0.0000
      7 N1         -0.2201   -1.8848    3.2487 N.ar      1 <0>         0.0000
      8 O1          1.5446    1.1610   -0.2989 O.2       1 <0>         0.0000
      9 O2          3.0940   -0.3607    3.2641 O.3       1 <0>         0.0000
     10 O3          3.3183    1.1248    1.0487 O.3       1 <0>         0.0000
     11 Cl1        -2.3222   -1.8652    1.6657 Cl        1 <0>         0.0000
     12 Cl2         1.6316   -2.1973    5.1139 Cl        1 <0>         0.0000
     13 H1         -0.3884   -0.1501    0.3576 H         1 <0>         0.0000
     14 H2          3.2969   -0.8000    4.1123 H         1 <0>         0.0000
     15 H3          3.5969    0.7219    1.8950 H         1 <0>         0.0000
@<TRIPOS>BOND
     1    1    2 ar
     2    1    4 ar
     3    1   13 1
     4    2    3 ar
     5    2    6 1
     6    3    5 ar
     7    3    9 1
     8    4    7 ar
     9    4   11 1
    10    5    7 ar
    11    5   12 1
    12    6    8 2
    13    6   10 1
    14    9   14 1
    15   10   15 1
