@<TRIPOS>MOLECULE
*****
   64    69     0     0     0
SMALL
NO_CHARGES

@<TRIPOS>ATOM
      1 C1          9.9966   -4.7290    1.4494 C.ar      1 <0>         0.0000
      2 C2          8.9785   -3.8628    1.0376 C.ar      1 <0>         0.0000
      3 C3          9.6677   -5.9928    1.9538 C.ar      1 <0>         0.0000
      4 C4          7.6416   -4.2593    1.1260 C.ar      1 <0>         0.0000
      5 C5          8.3322   -6.3849    2.0543 C.ar      1 <0>         0.0000
      6 C6          5.0546   -9.4389    0.5389 C.ar      1 <0>         0.0000
      7 C7          6.8072   -8.0638   -0.3921 C.ar      1 <0>         0.0000
      8 C8          5.5051  -10.5190   -0.2184 C.ar      1 <0>         0.0000
      9 C9          7.2495   -9.1489   -1.1480 C.ar      1 <0>         0.0000
     10 C10         3.9088   -3.5836    3.7804 C.2       1 <0>         0.0000
     11 C11         5.0273   -4.0485    3.1526 C.2       1 <0>         0.0000
     12 C12         5.7067   -8.1945    0.4736 C.ar      1 <0>         0.0000
     13 C13         7.3004   -5.5252    1.6363 C.ar      1 <0>         0.0000
     14 C14         6.6107  -10.3954   -1.0732 C.ar      1 <0>         0.0000
     15 C15         5.2084   -7.0794    1.2920 C.2       1 <0>         0.0000
     16 C16         5.8973   -5.9510    1.7349 C.2       1 <0>         0.0000
     17 C17         2.7053   -4.3532    3.6585 C.2       1 <0>         0.0000
     18 C18         3.7328   -5.9430    2.3921 C.2       1 <0>         0.0000
     19 C19         0.1621   -2.5560    7.0001 C.2       1 <0>         0.0000
     20 C20         0.7314   -2.8679    8.3827 C.3       1 <0>         0.0000
     21 C21         0.2888   -4.3130    8.6601 C.3       1 <0>         0.0000
     22 C22         8.3660  -13.2739   -2.0507 C.3       1 <0>         0.0000
     23 C23         7.0086  -12.9848   -1.3548 C.3       1 <0>         0.0000
     24 C24         8.5711  -11.7430   -2.2073 C.3       1 <0>         0.0000
     25 C25         0.1052   -4.9125    7.2514 C.3       1 <0>         0.0000
     26 C26         7.0462  -11.5470   -1.9541 C.3       1 <0>         0.0000
     27 C27        -0.6299   -3.8496    5.0487 C.3       1 <0>         0.0000
     28 C28         0.3944   -4.5742    4.1845 C.3       1 <0>         0.0000
     29 N1          3.8904   -7.0610    1.7076 N.2       1 <0>         0.0000
     30 N2          2.6153   -5.4840    3.0011 N.2       1 <0>         0.0000
     31 N3          4.9446   -5.2112    2.4375 N.pl3     1 <0>         0.0000
     32 N4         -0.2346   -3.7483    6.4390 N.am      1 <0>         0.0000
     33 N5          6.3459  -11.5608   -3.2569 N.3       1 <0>         0.0000
     34 O1          0.0781   -1.4529    6.4717 O.2       1 <0>         0.0000
     35 O2          1.6276   -3.8389    4.2869 O.3       1 <0>         0.0000
     36 H1         11.0370   -4.4234    1.3756 H         1 <0>         0.0000
     37 H2          9.2251   -2.8837    0.6349 H         1 <0>         0.0000
     38 H3         10.4531   -6.6716    2.2761 H         1 <0>         0.0000
     39 H4          6.8574   -3.5960    0.7688 H         1 <0>         0.0000
     40 H5          8.0767   -7.3644    2.4479 H         1 <0>         0.0000
     41 H6          4.1929   -9.5400    1.1912 H         1 <0>         0.0000
     42 H7          7.3132   -7.1089   -0.4867 H         1 <0>         0.0000
     43 H8          4.9915  -11.4753   -0.1417 H         1 <0>         0.0000
     44 H9          8.1043   -9.0225   -1.8091 H         1 <0>         0.0000
     45 H10         3.9167   -2.6646    4.3531 H         1 <0>         0.0000
     46 H11         5.9906   -3.5529    3.1871 H         1 <0>         0.0000
     47 H12         1.8219   -2.7755    8.3188 H         1 <0>         0.0000
     48 H13         0.3808   -2.1374    9.1141 H         1 <0>         0.0000
     49 H14         1.0038   -4.8833    9.2575 H         1 <0>         0.0000
     50 H15        -0.6705   -4.3163    9.1861 H         1 <0>         0.0000
     51 H16         8.2306  -13.7658   -3.0155 H         1 <0>         0.0000
     52 H17         9.1151  -13.8166   -1.4678 H         1 <0>         0.0000
     53 H18         6.1519  -13.6041   -1.6365 H         1 <0>         0.0000
     54 H19         7.1025  -12.9672   -0.2654 H         1 <0>         0.0000
     55 H20         9.1695  -11.3251   -1.3927 H         1 <0>         0.0000
     56 H21         8.9537  -11.3777   -3.1649 H         1 <0>         0.0000
     57 H22         1.0307   -5.3860    6.8936 H         1 <0>         0.0000
     58 H23        -0.6932   -5.6617    7.2096 H         1 <0>         0.0000
     59 H24        -0.7743   -2.8286    4.6884 H         1 <0>         0.0000
     60 H25        -1.5849   -4.3854    4.9653 H         1 <0>         0.0000
     61 H26         0.0659   -4.6033    3.1407 H         1 <0>         0.0000
     62 H27         0.5585   -5.6060    4.5076 H         1 <0>         0.0000
     63 H28         6.5084  -10.6669   -3.7229 H         1 <0>         0.0000
     64 H29         5.3402  -11.6026   -3.0849 H         1 <0>         0.0000
@<TRIPOS>BOND
     1    1    3 ar
     2    1    2 ar
     3    1   36 1
     4    2    4 ar
     5    2   37 1
     6    3    5 ar
     7    3   38 1
     8    4   13 ar
     9    4   39 1
    10    5   13 ar
    11    5   40 1
    12    6    8 ar
    13    6   12 ar
    14    6   41 1
    15    7    9 ar
    16    7   12 ar
    17    7   42 1
    18    8   14 ar
    19    8   43 1
    20    9   14 ar
    21    9   44 1
    22   10   11 2
    23   10   17 1
    24   10   45 1
    25   11   31 1
    26   11   46 1
    27   12   15 1
    28   13   16 1
    29   14   26 1
    30   15   16 2
    31   15   29 1
    32   16   31 1
    33   17   30 2
    34   17   35 1
    35   18   29 2
    36   18   30 1
    37   18   31 1
    38   19   20 1
    39   19   32 am
    40   19   34 2
    41   20   21 1
    42   20   47 1
    43   20   48 1
    44   21   25 1
    45   21   49 1
    46   21   50 1
    47   22   24 1
    48   22   23 1
    49   22   51 1
    50   22   52 1
    51   23   26 1
    52   23   53 1
    53   23   54 1
    54   24   26 1
    55   24   55 1
    56   24   56 1
    57   25   32 1
    58   25   57 1
    59   25   58 1
    60   26   33 1
    61   27   28 1
    62   27   32 1
    63   27   59 1
    64   27   60 1
    65   28   35 1
    66   28   61 1
    67   28   62 1
    68   33   63 1
    69   33   64 1
