@<TRIPOS>MOLECULE
*****
   65    68     0     0     0
SMALL
NO_CHARGES

@<TRIPOS>ATOM
      1 C1          2.9323    3.8003   -3.5879 C.1       1 <0>         0.0000
      2 C2          2.9958    2.7951   -2.9081 C.1       1 <0>         0.0000
      3 C3          5.3836    6.6703   -0.0659 C.ar      1 <0>         0.0000
      4 C4          4.5551    6.0787   -1.0208 C.ar      1 <0>         0.0000
      5 C5          3.0072    5.1436   -5.6765 C.ar      1 <0>         0.0000
      6 C6          2.7688    7.5326   -5.5542 C.ar      1 <0>         0.0000
      7 C7          2.8619    5.0463   -4.2802 C.ar      1 <0>         0.0000
      8 C8          2.9808    7.9268   -0.7457 C.ar      1 <0>         0.0000
      9 C9          2.6192    7.4769   -4.1646 C.ar      1 <0>         0.0000
     10 C10         5.0410    7.8702    0.5604 C.ar      1 <0>         0.0000
     11 C11         2.9621    6.3778   -6.3274 C.ar      1 <0>         0.0000
     12 C12         3.3606    6.7120   -1.3331 C.ar      1 <0>         0.0000
     13 C13         2.6622    6.2256   -3.5402 C.ar      1 <0>         0.0000
     14 C14         3.8342    8.5115    0.2115 C.ar      1 <0>         0.0000
     15 C15         1.6191    8.4428   -1.1102 C.2       1 <0>         0.0000
     16 C16         2.4687    8.7604   -3.3808 C.3       1 <0>         0.0000
     17 C17         1.7904    2.6550   -0.1610 C.3       1 <0>         0.0000
     18 C18         3.2920    2.6952    0.2349 C.3       1 <0>         0.0000
     19 C19         1.6830    1.5433   -1.2196 C.3       1 <0>         0.0000
     20 C20         4.0454    1.8682   -0.8437 C.3       1 <0>         0.0000
     21 C21         3.0220    1.6491   -1.9929 C.3       1 <0>         0.0000
     22 C22         3.0869    6.4732   -7.8308 C.3       1 <0>         0.0000
     23 C23         4.1443    6.9677    4.7886 C.3       1 <0>         0.0000
     24 C24         4.1355    9.4018    4.1178 C.3       1 <0>         0.0000
     25 C25         2.8214   10.7309    0.2425 C.3       1 <0>         0.0000
     26 C26         5.7213    7.7547    2.9902 C.3       1 <0>         0.0000
     27 C27         5.9493    8.4414    1.6297 C.3       1 <0>         0.0000
     28 C28         4.3377    7.9591    3.6320 C.3       1 <0>         0.0000
     29 O1          0.7220    8.5852   -0.3082 O.2       1 <0>         0.0000
     30 O2          2.4421    6.0974   -2.1782 O.3       1 <0>         0.0000
     31 O3          1.3910    8.7442   -2.4193 O.3       1 <0>         0.0000
     32 O4          7.3043    8.2233    1.1896 O.3       1 <0>         0.0000
     33 O5          3.5865    9.6888    0.8596 O.3       1 <0>         0.0000
     34 H1          6.3289    6.2066    0.1967 H         1 <0>         0.0000
     35 H2          4.8051    5.1395   -1.5033 H         1 <0>         0.0000
     36 H3          3.1608    4.2307   -6.2454 H         1 <0>         0.0000
     37 H4          2.7269    8.5017   -6.0488 H         1 <0>         0.0000
     38 H5          3.4061    9.0188   -2.8790 H         1 <0>         0.0000
     39 H6          2.2161    9.5740   -4.0634 H         1 <0>         0.0000
     40 H7          1.1336    2.4745    0.6949 H         1 <0>         0.0000
     41 H8          1.4959    3.6104   -0.6048 H         1 <0>         0.0000
     42 H9          3.6524    3.7259    0.2727 H         1 <0>         0.0000
     43 H10         3.4556    2.2642    1.2274 H         1 <0>         0.0000
     44 H11         1.6382    0.5567   -0.7419 H         1 <0>         0.0000
     45 H12         0.8104    1.6458   -1.8699 H         1 <0>         0.0000
     46 H13         4.9602    2.3520   -1.1954 H         1 <0>         0.0000
     47 H14         4.3278    0.8875   -0.4456 H         1 <0>         0.0000
     48 H15         3.2416    0.7359   -2.5564 H         1 <0>         0.0000
     49 H16         2.1075    6.6352   -8.2961 H         1 <0>         0.0000
     50 H17         3.7311    7.3077   -8.1256 H         1 <0>         0.0000
     51 H18         3.5066    5.5569   -8.2546 H         1 <0>         0.0000
     52 H19         4.9004    7.1213    5.5689 H         1 <0>         0.0000
     53 H20         3.1592    7.0919    5.2515 H         1 <0>         0.0000
     54 H21         4.2250    5.9311    4.4429 H         1 <0>         0.0000
     55 H22         4.8737    9.6583    4.8888 H         1 <0>         0.0000
     56 H23         4.2258   10.1206    3.2999 H         1 <0>         0.0000
     57 H24         3.1397    9.5263    4.5568 H         1 <0>         0.0000
     58 H25         3.1744   11.6603    0.6938 H         1 <0>         0.0000
     59 H26         1.7551   10.6030    0.4338 H         1 <0>         0.0000
     60 H27         3.0048   10.7667   -0.8374 H         1 <0>         0.0000
     61 H28         6.4874    8.1197    3.6923 H         1 <0>         0.0000
     62 H29         5.9098    6.6836    2.8477 H         1 <0>         0.0000
     63 H30         5.7640    9.5161    1.7179 H         1 <0>         0.0000
     64 H31         3.5729    7.7435    2.8763 H         1 <0>         0.0000
     65 H32         7.8897    8.4727    1.9219 H         1 <0>         0.0000
@<TRIPOS>BOND
     1    1    2 3
     2    1    7 1
     3    2   21 1
     4    3    4 ar
     5    3   10 ar
     6    3   34 1
     7    4   12 ar
     8    4   35 1
     9    5    7 ar
    10    5   11 ar
    11    5   36 1
    12    6    9 ar
    13    6   11 ar
    14    6   37 1
    15    7   13 ar
    16    8   12 ar
    17    8   14 ar
    18    8   15 1
    19    9   13 ar
    20    9   16 1
    21   10   14 ar
    22   10   27 1
    23   11   22 1
    24   12   30 1
    25   13   30 1
    26   14   33 1
    27   15   29 2
    28   15   31 1
    29   16   31 1
    30   16   38 1
    31   16   39 1
    32   17   18 1
    33   17   19 1
    34   17   40 1
    35   17   41 1
    36   18   20 1
    37   18   42 1
    38   18   43 1
    39   19   21 1
    40   19   44 1
    41   19   45 1
    42   20   21 1
    43   20   46 1
    44   20   47 1
    45   21   48 1
    46   22   49 1
    47   22   50 1
    48   22   51 1
    49   23   28 1
    50   23   52 1
    51   23   53 1
    52   23   54 1
    53   24   28 1
    54   24   55 1
    55   24   56 1
    56   24   57 1
    57   25   33 1
    58   25   58 1
    59   25   59 1
    60   25   60 1
    61   26   27 1
    62   26   28 1
    63   26   61 1
    64   26   62 1
    65   27   32 1
    66   27   63 1
    67   28   64 1
    68   32   65 1
