@<TRIPOS>MOLECULE
*****
   30    31     0     0     0
SMALL
NO_CHARGES

@<TRIPOS>ATOM
      1 C1          2.6390    0.1260    0.2117 C.ar      1 <0>         0.0000
      2 C2          6.2718   -1.9573    0.7200 C.ar      1 <0>         0.0000
      3 C3          2.4924   -1.2251    0.5483 C.ar      1 <0>         0.0000
      4 C4          2.5627    1.1167    1.1961 C.ar      1 <0>         0.0000
      5 C5          6.2278   -2.9762    1.6793 C.ar      1 <0>         0.0000
      6 C6          5.9213   -0.6476    1.0610 C.ar      1 <0>         0.0000
      7 C7          2.2526   -1.5945    1.8717 C.ar      1 <0>         0.0000
      8 C8          2.3442    0.7640    2.5301 C.ar      1 <0>         0.0000
      9 C9          5.8287   -2.6925    2.9859 C.ar      1 <0>         0.0000
     10 C10         5.5059   -0.3486    2.3593 C.ar      1 <0>         0.0000
     11 C11         2.1903   -0.5887    2.8412 C.ar      1 <0>         0.0000
     12 C12         5.4551   -1.3809    3.2978 C.ar      1 <0>         0.0000
     13 N1          3.3530   -1.7454    5.2205 N.pl3     1 <0>         0.0000
     14 O1          1.6462    0.1627    5.3229 O.2       1 <0>         0.0000
     15 O2          0.9200   -2.1683    4.5414 O.2       1 <0>         0.0000
     16 O3          5.8225   -1.7046    5.8942 O.2       1 <0>         0.0000
     17 O4          4.6933    0.4478    5.0731 O.2       1 <0>         0.0000
     18 F1          3.4709   -3.0659    4.7103 F         1 <0>         0.0000
     19 S1          1.8363   -1.0388    4.5289 S.o2      1 <0>         0.0000
     20 S2          4.9682   -0.9796    4.9684 S.o2      1 <0>         0.0000
     21 H1          2.8109    0.4070   -0.8239 H         1 <0>         0.0000
     22 H2          6.5904   -2.1848   -0.2937 H         1 <0>         0.0000
     23 H3          2.5560   -1.9900   -0.2199 H         1 <0>         0.0000
     24 H4          2.6729    2.1637    0.9287 H         1 <0>         0.0000
     25 H5          6.5152   -3.9896    1.4144 H         1 <0>         0.0000
     26 H6          5.9672    0.1435    0.3185 H         1 <0>         0.0000
     27 H7          2.1079   -2.6336    2.1482 H         1 <0>         0.0000
     28 H8          2.2908    1.5098    3.3163 H         1 <0>         0.0000
     29 H9          5.8144   -3.4646    3.7467 H         1 <0>         0.0000
     30 H10         5.2333    0.6601    2.6459 H         1 <0>         0.0000
@<TRIPOS>BOND
     1    1    4 ar
     2    1    3 ar
     3    1   21 1
     4    2    6 ar
     5    2    5 ar
     6    2   22 1
     7    3    7 ar
     8    3   23 1
     9    4    8 ar
    10    4   24 1
    11    5    9 ar
    12    5   25 1
    13    6   10 ar
    14    6   26 1
    15    7   11 ar
    16    7   27 1
    17    8   11 ar
    18    8   28 1
    19    9   12 ar
    20    9   29 1
    21   10   12 ar
    22   10   30 1
    23   11   19 1
    24   12   20 1
    25   13   18 1
    26   13   19 1
    27   13   20 1
    28   14   19 2
    29   15   19 2
    30   16   20 2
    31   17   20 2
