@<TRIPOS>MOLECULE
*****
   55    56     0     0     0
SMALL
NO_CHARGES

@<TRIPOS>ATOM
      1 C1         -1.8982    3.6127    0.0955 C.ar      1 <0>         0.0000
      2 C2         -0.8250    4.2196    0.7730 C.ar      1 <0>         0.0000
      3 C3         -1.9043    2.2346   -0.0745 C.ar      1 <0>         0.0000
      4 C4          0.2199    3.4562    1.2865 C.ar      1 <0>         0.0000
      5 C5         -0.8508    1.4461    0.4243 C.ar      1 <0>         0.0000
      6 C6          0.2041    2.0650    1.1193 C.ar      1 <0>         0.0000
      7 C7         -0.8189   -0.0078    0.1777 C.2       1 <0>         0.0000
      8 C8          0.5039   -0.7229    0.5469 C.3       1 <0>         0.0000
      9 C9          1.0508   -0.0711    1.8608 C.3       1 <0>         0.0000
     10 C10         0.0613   -0.2352    3.0296 C.3       1 <0>         0.0000
     11 C11         4.4785   -0.4067    3.7653 C.3       1 <0>         0.0000
     12 C12         1.5766   -2.5845   -4.2556 C.3       1 <0>         0.0000
     13 C13         2.4976   -5.4199   -0.8367 C.3       1 <0>         0.0000
     14 C14         1.4569   -0.4300   -0.6507 C.3       1 <0>         0.0000
     15 C15         0.2060   -2.2375    0.6998 C.3       1 <0>         0.0000
     16 C16         2.4485   -0.5718    2.2553 C.3       1 <0>         0.0000
     17 C17         3.0348    0.0519    3.5300 C.3       1 <0>         0.0000
     18 C18         0.9490   -1.0057   -1.9819 C.3       1 <0>         0.0000
     19 C19         1.3996   -3.1953    0.5463 C.3       1 <0>         0.0000
     20 O1         -1.7414   -0.5985   -0.3733 O.2       1 <0>         0.0000
     21 O2          3.0185   -0.4224   -3.6054 O.2       1 <0>         0.0000
     22 O3          3.1626   -2.4886   -2.1258 O.2       1 <0>         0.0000
     23 O4          0.1429   -5.5739    0.4270 O.2       1 <0>         0.0000
     24 O5          0.3143   -4.1800   -1.6985 O.2       1 <0>         0.0000
     25 O6          1.2480    1.3605    1.6288 O.3       1 <0>         0.0000
     26 S1          2.3569   -1.5800   -2.9793 S.o2      1 <0>         0.0000
     27 S2          0.9140   -4.6584   -0.4312 S.o2      1 <0>         0.0000
     28 H1         -2.7102    4.2190   -0.2947 H         1 <0>         0.0000
     29 H2         -0.8108    5.2982    0.9068 H         1 <0>         0.0000
     30 H3         -2.7085    1.7316   -0.6032 H         1 <0>         0.0000
     31 H4          1.0477    3.9112    1.8221 H         1 <0>         0.0000
     32 H5          0.3003    0.4883    3.8109 H         1 <0>         0.0000
     33 H6          0.1352   -1.2353    3.4633 H         1 <0>         0.0000
     34 H7         -0.9770   -0.0750    2.7301 H         1 <0>         0.0000
     35 H8          4.5387   -1.4968    3.8666 H         1 <0>         0.0000
     36 H9          4.8896    0.0348    4.6789 H         1 <0>         0.0000
     37 H10         5.1276   -0.1150    2.9320 H         1 <0>         0.0000
     38 H11         2.3877   -2.9453   -4.8911 H         1 <0>         0.0000
     39 H12         1.0538   -3.4081   -3.7677 H         1 <0>         0.0000
     40 H13         0.8988   -1.9520   -4.8316 H         1 <0>         0.0000
     41 H14         2.2587   -6.3176   -1.4104 H         1 <0>         0.0000
     42 H15         3.0749   -4.7098   -1.4305 H         1 <0>         0.0000
     43 H16         3.0053   -5.6910    0.0907 H         1 <0>         0.0000
     44 H17         2.4385   -0.8487   -0.4299 H         1 <0>         0.0000
     45 H18         1.6086    0.6452   -0.7504 H         1 <0>         0.0000
     46 H19        -0.5512   -2.4763   -0.0488 H         1 <0>         0.0000
     47 H20        -0.2844   -2.4215    1.6560 H         1 <0>         0.0000
     48 H21         2.4049   -1.6574    2.3814 H         1 <0>         0.0000
     49 H22         3.1397   -0.3746    1.4311 H         1 <0>         0.0000
     50 H23         3.0004    1.1426    3.4475 H         1 <0>         0.0000
     51 H24         2.4258   -0.2199    4.3989 H         1 <0>         0.0000
     52 H25         0.3165   -1.8844   -1.8585 H         1 <0>         0.0000
     53 H26         0.4186   -0.2661   -2.5848 H         1 <0>         0.0000
     54 H27         2.2396   -2.7724   -0.0033 H         1 <0>         0.0000
     55 H28         1.7567   -3.5924    1.4985 H         1 <0>         0.0000
@<TRIPOS>BOND
     1    1    2 ar
     2    1    3 ar
     3    1   28 1
     4    2    4 ar
     5    2   29 1
     6    3    5 ar
     7    3   30 1
     8    4    6 ar
     9    4   31 1
    10    5    6 ar
    11    5    7 1
    12    6   25 1
    13    7    8 1
    14    7   20 2
    15    8    9 1
    16    8   14 1
    17    8   15 1
    18    9   10 1
    19    9   16 1
    20    9   25 1
    21   10   32 1
    22   10   33 1
    23   10   34 1
    24   11   17 1
    25   11   35 1
    26   11   36 1
    27   11   37 1
    28   12   26 1
    29   12   38 1
    30   12   39 1
    31   12   40 1
    32   13   27 1
    33   13   41 1
    34   13   42 1
    35   13   43 1
    36   14   18 1
    37   14   44 1
    38   14   45 1
    39   15   19 1
    40   15   46 1
    41   15   47 1
    42   16   17 1
    43   16   48 1
    44   16   49 1
    45   17   50 1
    46   17   51 1
    47   18   26 1
    48   18   52 1
    49   18   53 1
    50   19   27 1
    51   19   54 1
    52   19   55 1
    53   21   26 2
    54   22   26 2
    55   23   27 2
    56   24   27 2
