@<TRIPOS>MOLECULE
*****
   57    61     0     0     0
SMALL
NO_CHARGES

@<TRIPOS>ATOM
      1 C1         -0.7734    1.1945    1.1386 C.ar      1 <0>         0.0000
      2 C2         -0.8225    0.0303    0.3335 C.ar      1 <0>         0.0000
      3 C3         -6.2216   -1.2540   -1.5412 C.ar      1 <0>         0.0000
      4 C4         -1.6725    1.3759    2.1804 C.ar      1 <0>         0.0000
      5 C5         -3.9203    0.9207    5.8086 C.ar      1 <0>         0.0000
      6 C6         -4.3075    2.5702    4.0950 C.ar      1 <0>         0.0000
      7 C7         -5.1323   -1.6521   -0.7569 C.ar      1 <0>         0.0000
      8 C8         -1.7593   -0.9723    0.5573 C.ar      1 <0>         0.0000
      9 C9         -7.5257   -1.5532   -1.1536 C.ar      1 <0>         0.0000
     10 C10        -4.1729    1.8732    6.7879 C.ar      1 <0>         0.0000
     11 C11        -4.5600    3.5401    5.0697 C.ar      1 <0>         0.0000
     12 C12        -6.6650   -2.6737    0.8213 C.ar      1 <0>         0.0000
     13 C13        -2.6431    0.3820    2.4167 C.ar      1 <0>         0.0000
     14 C14        -3.9920    1.2463    4.4380 C.ar      1 <0>         0.0000
     15 C15        -3.6956    0.2547    3.3838 C.2       1 <0>         0.0000
     16 C16        -5.3551   -2.3624    0.4278 C.ar      1 <0>         0.0000
     17 C17        -2.6663   -0.7939    1.6161 C.ar      1 <0>         0.0000
     18 C18        -4.4942    3.1935    6.4280 C.ar      1 <0>         0.0000
     19 C19        -7.7503   -2.2635    0.0362 C.ar      1 <0>         0.0000
     20 C20        -4.3108   -0.9729    3.1458 C.2       1 <0>         0.0000
     21 C21        -5.4450   -1.5996    3.8589 C.2       1 <0>         0.0000
     22 C22        -5.0301    7.6395    8.4822 C.3       1 <0>         0.0000
     23 C23        -4.0924    6.6902    9.1964 C.3       1 <0>         0.0000
     24 C24        -5.2846    6.1469    8.4436 C.3       1 <0>         0.0000
     25 C25        -9.3284   -3.1712    1.5878 C.3       1 <0>         0.0000
     26 C26        -4.1952   -2.7629    1.3211 C.3       1 <0>         0.0000
     27 C27        -5.0722    5.4106    7.1519 C.3       1 <0>         0.0000
     28 N1         -3.6660   -1.6225    2.0870 N.pl3     1 <0>         0.0000
     29 O1         -5.6935   -2.7933    3.8353 O.2       1 <0>         0.0000
     30 O2         -6.2535   -0.7695    4.5658 O.3       1 <0>         0.0000
     31 O3         -9.0587   -2.5073    0.3532 O.3       1 <0>         0.0000
     32 O4         -4.7177    4.0540    7.4612 O.3       1 <0>         0.0000
     33 H1         -0.0190    1.9495    0.9349 H         1 <0>         0.0000
     34 H2         -0.1067   -0.0859   -0.4759 H         1 <0>         0.0000
     35 H3         -6.0522   -0.7041   -2.4635 H         1 <0>         0.0000
     36 H4         -1.6339    2.2638    2.8055 H         1 <0>         0.0000
     37 H5         -3.6608   -0.0927    6.1023 H         1 <0>         0.0000
     38 H6         -4.3711    2.8435    3.0451 H         1 <0>         0.0000
     39 H7         -4.1211   -1.4001   -1.0630 H         1 <0>         0.0000
     40 H8         -1.7711   -1.8612   -0.0656 H         1 <0>         0.0000
     41 H9         -8.3802   -1.2473   -1.7503 H         1 <0>         0.0000
     42 H10        -4.1194    1.6206    7.8427 H         1 <0>         0.0000
     43 H11        -4.8081    4.5481    4.7583 H         1 <0>         0.0000
     44 H12        -6.8159   -3.2142    1.7471 H         1 <0>         0.0000
     45 H13        -5.6991    8.2523    9.0785 H         1 <0>         0.0000
     46 H14        -4.6735    8.1202    7.5750 H         1 <0>         0.0000
     47 H15        -3.1092    6.5242    8.7650 H         1 <0>         0.0000
     48 H16        -4.1187    6.6591   10.2812 H         1 <0>         0.0000
     49 H17        -6.1131    5.7764    9.0419 H         1 <0>         0.0000
     50 H18       -10.4152   -3.2263    1.6634 H         1 <0>         0.0000
     51 H19        -8.9283   -2.6095    2.4399 H         1 <0>         0.0000
     52 H20        -8.9117   -4.1857    1.5944 H         1 <0>         0.0000
     53 H21        -4.4958   -3.5342    2.0264 H         1 <0>         0.0000
     54 H22        -3.3661   -3.1519    0.7276 H         1 <0>         0.0000
     55 H23        -4.2661    5.8798    6.5715 H         1 <0>         0.0000
     56 H24        -5.9861    5.4188    6.5428 H         1 <0>         0.0000
     57 H25        -5.9298    0.1507    4.5179 H         1 <0>         0.0000
@<TRIPOS>BOND
     1    1    2 ar
     2    1    4 ar
     3    1   33 1
     4    2    8 ar
     5    2   34 1
     6    3    7 ar
     7    3    9 ar
     8    3   35 1
     9    4   13 ar
    10    4   36 1
    11    5   10 ar
    12    5   14 ar
    13    5   37 1
    14    6   11 ar
    15    6   14 ar
    16    6   38 1
    17    7   16 ar
    18    7   39 1
    19    8   17 ar
    20    8   40 1
    21    9   19 ar
    22    9   41 1
    23   10   18 ar
    24   10   42 1
    25   11   18 ar
    26   11   43 1
    27   12   16 ar
    28   12   19 ar
    29   12   44 1
    30   13   15 1
    31   13   17 ar
    32   14   15 1
    33   15   20 2
    34   16   26 1
    35   17   28 1
    36   18   32 1
    37   19   31 1
    38   20   21 1
    39   20   28 1
    40   21   29 2
    41   21   30 1
    42   22   23 1
    43   22   24 1
    44   22   45 1
    45   22   46 1
    46   23   24 1
    47   23   47 1
    48   23   48 1
    49   24   27 1
    50   24   49 1
    51   25   31 1
    52   25   50 1
    53   25   51 1
    54   25   52 1
    55   26   28 1
    56   26   53 1
    57   26   54 1
    58   27   32 1
    59   27   55 1
    60   27   56 1
    61   30   57 1
