@<TRIPOS>MOLECULE
*****
   67    71     0     0     0
SMALL
NO_CHARGES

@<TRIPOS>ATOM
      1 C1         -1.1029   -3.5965   -4.1614 C.ar      1 <0>         0.0000
      2 C2         -1.1822    1.6096   -9.2980 C.ar      1 <0>         0.0000
      3 C3         -0.8769   -2.9851   -5.3911 C.ar      1 <0>         0.0000
      4 C4         -2.0123   -3.0533   -3.2494 C.ar      1 <0>         0.0000
      5 C5         -0.8837    0.3727   -8.7346 C.ar      1 <0>         0.0000
      6 C6         -2.4811   -1.2515   -4.8601 C.ar      1 <0>         0.0000
      7 C7         -2.1879    2.4052   -8.7466 C.ar      1 <0>         0.0000
      8 C8         -1.5503   -1.7997   -5.7615 C.ar      1 <0>         0.0000
      9 C9         -2.6803   -1.8918   -3.6364 C.ar      1 <0>         0.0000
     10 C10        -2.9153    1.8625   -7.6594 C.ar      1 <0>         0.0000
     11 C11        -1.5995   -0.0335   -7.5959 C.ar      1 <0>         0.0000
     12 C12        -3.5502    4.4185   -8.7731 C.2       1 <0>         0.0000
     13 C13        -4.1865    3.4697   -4.8599 C.3       1 <0>         0.0000
     14 C14        -6.0513    2.0970   -5.8510 C.3       1 <0>         0.0000
     15 C15        -6.1823   -2.1308   -1.5196 C.3       1 <0>         0.0000
     16 C16        -5.9441   -2.4878   -3.6493 C.3       1 <0>         0.0000
     17 C17        -4.6789    3.1379   -3.4563 C.3       1 <0>         0.0000
     18 C18        -6.5570    1.7731   -4.4504 C.3       1 <0>         0.0000
     19 C19        -4.6047    3.5651   -8.0721 C.3       1 <0>         0.0000
     20 C20        -4.5336    2.3408   -5.8478 C.3       1 <0>         0.0000
     21 C21        -7.1249   -2.1430   -2.7303 C.3       1 <0>         0.0000
     22 C22        -5.5133    2.9127   -9.1313 C.3       1 <0>         0.0000
     23 C23        -1.4160    4.4315   -9.9688 C.3       1 <0>         0.0000
     24 C24        -7.0126    4.0860   -3.5589 C.3       1 <0>         0.0000
     25 N1         -2.6091    0.6884   -7.0901 N.ar      1 <0>         0.0000
     26 N2         -2.4216    3.7362   -9.1625 N.am      1 <0>         0.0000
     27 N3         -3.9820    2.5968   -7.1670 N.pl3     1 <0>         0.0000
     28 N4         -5.0300   -2.3928   -2.4582 N.pl3     1 <0>         0.0000
     29 N5         -1.2413   -1.2451   -7.0006 N.pl3     1 <0>         0.0000
     30 N6         -6.1761    2.8465   -3.4381 N.4       1 <0>         0.0000
     31 O1         -3.7500    5.6067   -9.0055 O.2       1 <0>         0.0000
     32 O2         -3.3274   -1.0908   -1.1318 O.2       1 <0>         0.0000
     33 O3         -4.3960    0.0567   -3.1115 O.2       1 <0>         0.0000
     34 F1         -7.6731   -0.9037   -2.9988 F         1 <0>         0.0000
     35 F2         -8.1459   -3.0308   -2.6978 F         1 <0>         0.0000
     36 S1         -3.8461   -1.1805   -2.4936 S.o2      1 <0>         0.0000
     37 H1         -0.5597   -4.5017   -3.9075 H         1 <0>         0.0000
     38 H2         -0.6037    1.9610  -10.1449 H         1 <0>         0.0000
     39 H3         -0.1583   -3.4263   -6.0786 H         1 <0>         0.0000
     40 H4         -2.1927   -3.5107   -2.2829 H         1 <0>         0.0000
     41 H5         -0.0878   -0.2407   -9.1457 H         1 <0>         0.0000
     42 H6         -3.0157   -0.3515   -5.1151 H         1 <0>         0.0000
     43 H7         -4.5821    4.4304   -5.2080 H         1 <0>         0.0000
     44 H8         -3.1000    3.5814   -4.8045 H         1 <0>         0.0000
     45 H9         -6.2888    1.2368   -6.4836 H         1 <0>         0.0000
     46 H10        -6.5898    2.9534   -6.2693 H         1 <0>         0.0000
     47 H11        -6.1408   -1.1820   -0.9817 H         1 <0>         0.0000
     48 H12        -6.3223   -2.9595   -0.8252 H         1 <0>         0.0000
     49 H13        -5.9676   -3.5001   -4.0547 H         1 <0>         0.0000
     50 H14        -5.7571   -1.7554   -4.4369 H         1 <0>         0.0000
     51 H15        -4.2019    2.2313   -3.0826 H         1 <0>         0.0000
     52 H16        -4.5094    3.9546   -2.7511 H         1 <0>         0.0000
     53 H17        -7.6441    1.6784   -4.4142 H         1 <0>         0.0000
     54 H18        -6.1092    0.8552   -4.0765 H         1 <0>         0.0000
     55 H19        -5.1840    4.2730   -7.4780 H         1 <0>         0.0000
     56 H20        -4.0551    1.4282   -5.4942 H         1 <0>         0.0000
     57 H21        -4.9471    2.1970   -9.7342 H         1 <0>         0.0000
     58 H22        -5.9223    3.6798   -9.7947 H         1 <0>         0.0000
     59 H23        -6.3443    2.3798   -8.6623 H         1 <0>         0.0000
     60 H24        -1.3721    4.0146  -10.9800 H         1 <0>         0.0000
     61 H25        -0.4324    4.3468   -9.4980 H         1 <0>         0.0000
     62 H26        -1.7049    5.4790  -10.0305 H         1 <0>         0.0000
     63 H27        -6.8357    4.5485   -4.5272 H         1 <0>         0.0000
     64 H28        -8.0639    3.8120   -3.4665 H         1 <0>         0.0000
     65 H29        -6.7346    4.7785   -2.7639 H         1 <0>         0.0000
     66 H30        -0.5016   -1.7285   -7.4933 H         1 <0>         0.0000
     67 H31        -6.3703    2.4385   -2.5189 H         1 <0>         0.0000
@<TRIPOS>BOND
     1    1    3 ar
     2    1    4 ar
     3    1   37 1
     4    2    5 ar
     5    2    7 ar
     6    2   38 1
     7    3    8 ar
     8    3   39 1
     9    4    9 ar
    10    4   40 1
    11    5   11 ar
    12    5   41 1
    13    6    8 ar
    14    6    9 ar
    15    6   42 1
    16    7   10 ar
    17    7   26 1
    18    8   29 1
    19    9   36 1
    20   10   25 ar
    21   10   27 1
    22   11   25 ar
    23   11   29 1
    24   12   19 1
    25   12   26 am
    26   12   31 2
    27   13   17 1
    28   13   20 1
    29   13   43 1
    30   13   44 1
    31   14   18 1
    32   14   20 1
    33   14   45 1
    34   14   46 1
    35   15   21 1
    36   15   28 1
    37   15   47 1
    38   15   48 1
    39   16   21 1
    40   16   28 1
    41   16   49 1
    42   16   50 1
    43   17   30 1
    44   17   51 1
    45   17   52 1
    46   18   30 1
    47   18   53 1
    48   18   54 1
    49   19   22 1
    50   19   27 1
    51   19   55 1
    52   20   27 1
    53   20   56 1
    54   21   34 1
    55   21   35 1
    56   22   57 1
    57   22   58 1
    58   22   59 1
    59   23   26 1
    60   23   60 1
    61   23   61 1
    62   23   62 1
    63   24   30 1
    64   24   63 1
    65   24   64 1
    66   24   65 1
    67   28   36 1
    68   29   66 1
    69   30   67 1
    70   32   36 2
    71   33   36 2
