@<TRIPOS>MOLECULE
*****
   37    39     0     0     0
SMALL
NO_CHARGES

@<TRIPOS>ATOM
      1 C1         -3.7159   -2.5739   -1.4348 C.ar      1 <0>         0.0000
      2 C2         -2.9963   -3.0336    0.7797 C.ar      1 <0>         0.0000
      3 C3         -3.8309   -3.3741   -0.2975 C.ar      1 <0>         0.0000
      4 C4         -2.7971   -1.5149   -1.4792 C.ar      1 <0>         0.0000
      5 C5         -1.9943   -1.2767   -0.3426 C.ar      1 <0>         0.0000
      6 C6         -1.4649    1.9801   -4.3337 C.3       1 <0>         0.0000
      7 C7         -2.2328    3.0388   -3.5706 C.3       1 <0>         0.0000
      8 C8          0.4434   -0.5343   -0.0109 C.3       1 <0>         0.0000
      9 C9          0.0338    0.1479   -1.2967 C.3       1 <0>         0.0000
     10 C10        -2.7804    1.6416   -3.6864 C.3       1 <0>         0.0000
     11 C11        -0.9991   -0.1481   -0.1967 C.3       1 <0>         0.0000
     12 C12        -4.7789   -4.5432   -0.2250 C.3       1 <0>         0.0000
     13 C13        -1.5031    1.0030    0.6709 C.3       1 <0>         0.0000
     14 C14        -2.7118   -0.7110   -2.7529 C.3       1 <0>         0.0000
     15 N1         -2.1201   -2.0282    0.7614 N.ar      1 <0>         0.0000
     16 N2         -2.7716    0.7797   -2.4780 N.4       1 <0>         0.0000
     17 H1         -4.3449   -2.7793   -2.2996 H         1 <0>         0.0000
     18 H2         -3.0436   -3.6053    1.7058 H         1 <0>         0.0000
     19 H3         -1.4465    2.0206   -5.4174 H         1 <0>         0.0000
     20 H4         -0.5552    1.5966   -3.8816 H         1 <0>         0.0000
     21 H5         -1.8334    3.3552   -2.6107 H         1 <0>         0.0000
     22 H6         -2.7497    3.8179   -4.1203 H         1 <0>         0.0000
     23 H7          0.6909   -1.5888   -0.0643 H         1 <0>         0.0000
     24 H8          1.0255    0.0339    0.7073 H         1 <0>         0.0000
     25 H9          0.3554    1.1779   -1.4406 H         1 <0>         0.0000
     26 H10         0.0607   -0.4657   -2.1929 H         1 <0>         0.0000
     27 H11        -3.6533    1.4500   -4.3013 H         1 <0>         0.0000
     28 H12        -4.3327   -5.4313   -0.6860 H         1 <0>         0.0000
     29 H13        -5.0190   -4.7947    0.8109 H         1 <0>         0.0000
     30 H14        -5.7145   -4.3333   -0.7509 H         1 <0>         0.0000
     31 H15        -0.7426    1.7834    0.7700 H         1 <0>         0.0000
     32 H16        -1.7416    0.6278    1.6696 H         1 <0>         0.0000
     33 H17        -2.4165    1.4707    0.2775 H         1 <0>         0.0000
     34 H18        -1.7853   -0.8669   -3.3076 H         1 <0>         0.0000
     35 H19        -3.5464   -0.9404   -3.4172 H         1 <0>         0.0000
     36 H20        -1.9486    0.9905   -1.8910 H         1 <0>         0.0000
     37 H21        -3.5949    0.9783   -1.8969 H         1 <0>         0.0000
@<TRIPOS>BOND
     1    1    3 ar
     2    1    4 ar
     3    1   17 1
     4    2    3 ar
     5    2   15 ar
     6    2   18 1
     7    3   12 1
     8    4    5 ar
     9    4   14 1
    10    5   11 1
    11    5   15 ar
    12    6    7 1
    13    6   10 1
    14    6   19 1
    15    6   20 1
    16    7   10 1
    17    7   21 1
    18    7   22 1
    19    8    9 1
    20    8   11 1
    21    8   23 1
    22    8   24 1
    23    9   11 1
    24    9   25 1
    25    9   26 1
    26   10   16 1
    27   10   27 1
    28   11   13 1
    29   12   28 1
    30   12   29 1
    31   12   30 1
    32   13   31 1
    33   13   32 1
    34   13   33 1
    35   14   16 1
    36   14   34 1
    37   14   35 1
    38   16   36 1
    39   16   37 1
