@<TRIPOS>MOLECULE
*****
   65    68     0     0     0
SMALL
NO_CHARGES

@<TRIPOS>ATOM
      1 C1          3.8436    3.9248   -2.0836 C.1       1 <0>         0.0000
      2 C2          3.9128    3.0751   -1.2177 C.1       1 <0>         0.0000
      3 C3          6.5929    7.3849    0.6012 C.ar      1 <0>         0.0000
      4 C4          5.6872    6.6256   -0.1449 C.ar      1 <0>         0.0000
      5 C5          3.8351    4.8099   -4.4041 C.ar      1 <0>         0.0000
      6 C6          3.6696    7.1805   -4.7654 C.ar      1 <0>         0.0000
      7 C7          3.7690    5.0056   -3.0122 C.ar      1 <0>         0.0000
      8 C8          4.1757    8.5445   -0.1615 C.ar      1 <0>         0.0000
      9 C9          3.6000    7.4160   -3.3882 C.ar      1 <0>         0.0000
     10 C10         6.3332    8.7037    0.9734 C.ar      1 <0>         0.0000
     11 C11         3.7860    5.8857   -5.2926 C.ar      1 <0>         0.0000
     12 C12         4.4900    7.2211   -0.5072 C.ar      1 <0>         0.0000
     13 C13         3.6461    6.3184   -2.5219 C.ar      1 <0>         0.0000
     14 C14         5.1029    9.2912    0.5913 C.ar      1 <0>         0.0000
     15 C15         2.8034    9.0157   -0.5494 C.2       1 <0>         0.0000
     16 C16         3.5258    8.8375   -2.8797 C.3       1 <0>         0.0000
     17 C17         2.8304    3.5301    1.5471 C.3       1 <0>         0.0000
     18 C18         4.3513    3.6133    1.8545 C.3       1 <0>         0.0000
     19 C19         2.6509    2.2311    0.7413 C.3       1 <0>         0.0000
     20 C20         5.0335    2.5526    0.9474 C.3       1 <0>         0.0000
     21 C21         3.9549    2.1367   -0.0911 C.3       1 <0>         0.0000
     22 C22         3.8219    5.6651   -6.7876 C.3       1 <0>         0.0000
     23 C23         8.4804   12.2190   -0.8129 C.3       1 <0>         0.0000
     24 C24         9.2835    9.8253   -0.6945 C.3       1 <0>         0.0000
     25 C25         4.1157   11.4867    0.2175 C.3       1 <0>         0.0000
     26 C26         7.8285   10.8045    1.1650 C.3       1 <0>         0.0000
     27 C27         7.3868    9.4565    1.7646 C.3       1 <0>         0.0000
     28 C28         8.1489   10.7971   -0.3387 C.3       1 <0>         0.0000
     29 O1          1.9556    9.3413    0.2511 O.2       1 <0>         0.0000
     30 O2          3.5058    6.4807   -1.1526 O.3       1 <0>         0.0000
     31 O3          2.5074    9.0552   -1.8805 O.3       1 <0>         0.0000
     32 O4          6.8907    9.6261    3.1036 O.3       1 <0>         0.0000
     33 O5          4.9238   10.5829    0.9769 O.3       1 <0>         0.0000
     34 H1          7.5345    6.9354    0.9065 H         1 <0>         0.0000
     35 H2          5.8818    5.5950   -0.4219 H         1 <0>         0.0000
     36 H3          3.9295    3.7946   -4.7796 H         1 <0>         0.0000
     37 H4          3.6241    8.0289   -5.4464 H         1 <0>         0.0000
     38 H5          4.4972    9.1611   -2.4932 H         1 <0>         0.0000
     39 H6          3.2525    9.5019   -3.7019 H         1 <0>         0.0000
     40 H7          2.2168    3.5413    2.4524 H         1 <0>         0.0000
     41 H8          2.5264    4.3842    0.9352 H         1 <0>         0.0000
     42 H9          4.7300    4.6173    1.6499 H         1 <0>         0.0000
     43 H10         4.5596    3.4044    2.9081 H         1 <0>         0.0000
     44 H11         2.6071    1.3629    1.4105 H         1 <0>         0.0000
     45 H12         1.7517    2.2263    0.1198 H         1 <0>         0.0000
     46 H13         5.9457    2.9180    0.4685 H         1 <0>         0.0000
     47 H14         5.3046    1.6664    1.5316 H         1 <0>         0.0000
     48 H15         4.1282    1.1222   -0.4661 H         1 <0>         0.0000
     49 H16         2.8135    5.7153   -7.2153 H         1 <0>         0.0000
     50 H17         4.4283    6.4257   -7.2893 H         1 <0>         0.0000
     51 H18         4.2369    4.6844   -7.0359 H         1 <0>         0.0000
     52 H19         9.3807   12.5993   -0.3149 H         1 <0>         0.0000
     53 H20         8.6637   12.2433   -1.8930 H         1 <0>         0.0000
     54 H21         7.6607   12.9127   -0.5941 H         1 <0>         0.0000
     55 H22        10.1967   10.0710   -0.1379 H         1 <0>         0.0000
     56 H23         9.0191    8.7882   -0.4686 H         1 <0>         0.0000
     57 H24         9.5213    9.8780   -1.7626 H         1 <0>         0.0000
     58 H25         4.5217   12.4808    0.4174 H         1 <0>         0.0000
     59 H26         3.0713   11.4401    0.5296 H         1 <0>         0.0000
     60 H27         4.1920   11.2813   -0.8565 H         1 <0>         0.0000
     61 H28         8.7267   11.1299    1.7126 H         1 <0>         0.0000
     62 H29         7.0447   11.5378    1.3659 H         1 <0>         0.0000
     63 H30         8.2673    8.8003    1.8036 H         1 <0>         0.0000
     64 H31         7.2460   10.4683   -0.8701 H         1 <0>         0.0000
     65 H32         7.4328   10.3055    3.5360 H         1 <0>         0.0000
@<TRIPOS>BOND
     1    1    2 3
     2    1    7 1
     3    2   21 1
     4    3    4 ar
     5    3   10 ar
     6    3   34 1
     7    4   12 ar
     8    4   35 1
     9    5    7 ar
    10    5   11 ar
    11    5   36 1
    12    6    9 ar
    13    6   11 ar
    14    6   37 1
    15    7   13 ar
    16    8   12 ar
    17    8   14 ar
    18    8   15 1
    19    9   13 ar
    20    9   16 1
    21   10   14 ar
    22   10   27 1
    23   11   22 1
    24   12   30 1
    25   13   30 1
    26   14   33 1
    27   15   29 2
    28   15   31 1
    29   16   31 1
    30   16   38 1
    31   16   39 1
    32   17   18 1
    33   17   19 1
    34   17   40 1
    35   17   41 1
    36   18   20 1
    37   18   42 1
    38   18   43 1
    39   19   21 1
    40   19   44 1
    41   19   45 1
    42   20   21 1
    43   20   46 1
    44   20   47 1
    45   21   48 1
    46   22   49 1
    47   22   50 1
    48   22   51 1
    49   23   28 1
    50   23   52 1
    51   23   53 1
    52   23   54 1
    53   24   28 1
    54   24   55 1
    55   24   56 1
    56   24   57 1
    57   25   33 1
    58   25   58 1
    59   25   59 1
    60   25   60 1
    61   26   27 1
    62   26   28 1
    63   26   61 1
    64   26   62 1
    65   27   32 1
    66   27   63 1
    67   28   64 1
    68   32   65 1
