@<TRIPOS>MOLECULE
*****
   28    29     0     0     0
SMALL
NO_CHARGES

@<TRIPOS>ATOM
      1 C1          0.3651   -0.6805    7.7339 C.ar      1 <0>         0.0000
      2 C2         -1.0197   -0.7549    7.9595 C.ar      1 <0>         0.0000
      3 C3          0.8504   -0.8098    6.4407 C.ar      1 <0>         0.0000
      4 C4         -1.8457   -0.9570    6.8587 C.ar      1 <0>         0.0000
      5 C5         -0.0810   -1.0120    5.4007 C.ar      1 <0>         0.0000
      6 C6          0.8049    0.3692    0.9473 C.3       1 <0>         0.0000
      7 C7          1.4125   -0.9763    1.3707 C.3       1 <0>         0.0000
      8 C8          0.0093    1.0057    2.0968 C.3       1 <0>         0.0000
      9 C9          0.3365   -1.9315    1.9084 C.3       1 <0>         0.0000
     10 C10        -1.0697    0.0512    2.6270 C.3       1 <0>         0.0000
     11 C11        -0.4871   -1.3059    3.0340 C.3       1 <0>         0.0000
     12 N1         -1.3960   -1.0831    5.5969 N.ar      1 <0>         0.0000
     13 O1          0.4308   -1.1459    4.1548 O.3       1 <0>         0.0000
     14 H1          1.0532   -0.5237    8.5608 H         1 <0>         0.0000
     15 H2         -1.4406   -0.6576    8.9554 H         1 <0>         0.0000
     16 H3          1.9094   -0.7629    6.2081 H         1 <0>         0.0000
     17 H4         -2.9260   -1.0211    6.9820 H         1 <0>         0.0000
     18 H5          0.1363    0.2115    0.0889 H         1 <0>         0.0000
     19 H6          1.5943    1.0507    0.6088 H         1 <0>         0.0000
     20 H7          1.9327   -1.4433    0.5261 H         1 <0>         0.0000
     21 H8          2.1632   -0.8068    2.1515 H         1 <0>         0.0000
     22 H9          0.6947    1.2636    2.9135 H         1 <0>         0.0000
     23 H10        -0.4552    1.9422    1.7670 H         1 <0>         0.0000
     24 H11        -0.3579   -2.1977    1.1008 H         1 <0>         0.0000
     25 H12         0.7867   -2.8637    2.2663 H         1 <0>         0.0000
     26 H13        -1.6025    0.4859    3.4770 H         1 <0>         0.0000
     27 H14        -1.8181   -0.1337    1.8444 H         1 <0>         0.0000
     28 H15        -1.2886   -1.9784    3.3483 H         1 <0>         0.0000
@<TRIPOS>BOND
     1    1    2 ar
     2    1    3 ar
     3    1   14 1
     4    2    4 ar
     5    2   15 1
     6    3    5 ar
     7    3   16 1
     8    4   12 ar
     9    4   17 1
    10    5   12 ar
    11    5   13 1
    12    6    8 1
    13    6    7 1
    14    6   18 1
    15    6   19 1
    16    7    9 1
    17    7   20 1
    18    7   21 1
    19    8   10 1
    20    8   22 1
    21    8   23 1
    22    9   11 1
    23    9   24 1
    24    9   25 1
    25   10   11 1
    26   10   26 1
    27   10   27 1
    28   11   13 1
    29   11   28 1
