@<TRIPOS>MOLECULE
*****
   61    63     0     0     0
SMALL
NO_CHARGES

@<TRIPOS>ATOM
      1 C1          8.8238    0.5125    0.4406 C.ar      1 <0>         0.0000
      2 C2         10.3073   -1.1511   -0.5143 C.ar      1 <0>         0.0000
      3 C3          9.8139    1.4861    0.2592 C.ar      1 <0>         0.0000
      4 C4         11.2904   -0.1827   -0.6940 C.ar      1 <0>         0.0000
      5 C5          9.0670   -0.8128    0.0524 C.ar      1 <0>         0.0000
      6 C6         11.0375    1.1372   -0.3052 C.ar      1 <0>         0.0000
      7 C7          2.8989    2.5121    1.6644 C.3       1 <0>         0.0000
      8 C8          2.0473    2.8893    2.8812 C.3       1 <0>         0.0000
      9 C9          2.3255    1.2897    0.9454 C.3       1 <0>         0.0000
     10 C10         1.2705    0.5179    2.9764 C.3       1 <0>         0.0000
     11 C11         2.4921   -3.0844   -0.1070 C.3       1 <0>         0.0000
     12 C12         2.7191   -1.5921    0.1630 C.3       1 <0>         0.0000
     13 C13         1.8065    1.6893    3.8219 C.3       1 <0>         0.0000
     14 C14         4.6372   -2.4742    1.3304 C.3       1 <0>         0.0000
     15 C15         3.1086    1.2715    4.5286 C.3       1 <0>         0.0000
     16 C16         0.7539    2.0634    4.8760 C.3       1 <0>         0.0000
     17 C17         4.6593   -2.0347    2.7996 C.3       1 <0>         0.0000
     18 C18         6.7417   -3.9090    1.5860 C.3       1 <0>         0.0000
     19 C19         5.9194   -3.3170   -0.7145 C.3       1 <0>         0.0000
     20 C20         1.7363   -1.0585    1.2227 C.3       1 <0>         0.0000
     21 C21         6.8910   -1.5386    0.7482 C.3       1 <0>         0.0000
     22 C22         6.0456   -2.8284    0.7403 C.3       1 <0>         0.0000
     23 N1          2.1658    0.1687    1.8729 N.3       1 <0>         0.0000
     24 O1          4.0951   -1.4392    0.5090 O.3       1 <0>         0.0000
     25 O2          8.1732   -1.8355    0.1815 O.3       1 <0>         0.0000
     26 S1          3.4409   -3.9287    1.2030 S.3       1 <0>         0.0000
     27 Cl1        12.2780    2.3647   -0.5334 Cl        1 <0>         0.0000
     28 H1          7.8776    0.8042    0.8803 H         1 <0>         0.0000
     29 H2         10.4825   -2.1813   -0.8097 H         1 <0>         0.0000
     30 H3          9.6258    2.5125    0.5587 H         1 <0>         0.0000
     31 H4         12.2473   -0.4474   -1.1331 H         1 <0>         0.0000
     32 H5          2.9491    3.3528    0.9628 H         1 <0>         0.0000
     33 H6          3.9262    2.2899    1.9718 H         1 <0>         0.0000
     34 H7          2.5133    3.7120    3.4373 H         1 <0>         0.0000
     35 H8          1.0733    3.2588    2.5312 H         1 <0>         0.0000
     36 H9          1.3550    1.5545    0.4755 H         1 <0>         0.0000
     37 H10         3.0062    0.9909    0.1448 H         1 <0>         0.0000
     38 H11         1.1531   -0.3657    3.6153 H         1 <0>         0.0000
     39 H12         0.2595    0.7790    2.6010 H         1 <0>         0.0000
     40 H13         1.4383   -3.3615   -0.0203 H         1 <0>         0.0000
     41 H14         2.8610   -3.3681   -1.0953 H         1 <0>         0.0000
     42 H15         2.6038   -1.0271   -0.7668 H         1 <0>         0.0000
     43 H16         2.9182    0.4560    5.2361 H         1 <0>         0.0000
     44 H17         3.5312    2.1111    5.0927 H         1 <0>         0.0000
     45 H18         3.8571    0.9195    3.8159 H         1 <0>         0.0000
     46 H19         0.5484    1.2217    5.5481 H         1 <0>         0.0000
     47 H20        -0.1921    2.3602    4.4085 H         1 <0>         0.0000
     48 H21         1.1009    2.9020    5.4903 H         1 <0>         0.0000
     49 H22         3.6680   -1.6953    3.0938 H         1 <0>         0.0000
     50 H23         5.3474   -1.1990    2.9504 H         1 <0>         0.0000
     51 H24         4.9583   -2.8572    3.4536 H         1 <0>         0.0000
     52 H25         7.6931   -4.1834    1.1246 H         1 <0>         0.0000
     53 H26         6.9555   -3.5638    2.6019 H         1 <0>         0.0000
     54 H27         6.1230   -4.8095    1.6490 H         1 <0>         0.0000
     55 H28         6.9133   -3.4739   -1.1391 H         1 <0>         0.0000
     56 H29         5.3987   -2.5800   -1.3317 H         1 <0>         0.0000
     57 H30         5.3731   -4.2623   -0.7586 H         1 <0>         0.0000
     58 H31         1.6042   -1.8202    1.9977 H         1 <0>         0.0000
     59 H32         0.7546   -0.9437    0.7171 H         1 <0>         0.0000
     60 H33         7.0382   -1.1675    1.7683 H         1 <0>         0.0000
     61 H34         6.3926   -0.7637    0.1572 H         1 <0>         0.0000
@<TRIPOS>BOND
     1    1    3 ar
     2    1    5 ar
     3    1   28 1
     4    2    4 ar
     5    2    5 ar
     6    2   29 1
     7    3    6 ar
     8    3   30 1
     9    4    6 ar
    10    4   31 1
    11    5   25 1
    12    6   27 1
    13    7    8 1
    14    7    9 1
    15    7   32 1
    16    7   33 1
    17    8   13 1
    18    8   34 1
    19    8   35 1
    20    9   23 1
    21    9   36 1
    22    9   37 1
    23   10   13 1
    24   10   23 1
    25   10   38 1
    26   10   39 1
    27   11   12 1
    28   11   26 1
    29   11   40 1
    30   11   41 1
    31   12   20 1
    32   12   24 1
    33   12   42 1
    34   13   15 1
    35   13   16 1
    36   14   17 1
    37   14   22 1
    38   14   24 1
    39   14   26 1
    40   15   43 1
    41   15   44 1
    42   15   45 1
    43   16   46 1
    44   16   47 1
    45   16   48 1
    46   17   49 1
    47   17   50 1
    48   17   51 1
    49   18   22 1
    50   18   52 1
    51   18   53 1
    52   18   54 1
    53   19   22 1
    54   19   55 1
    55   19   56 1
    56   19   57 1
    57   20   23 1
    58   20   58 1
    59   20   59 1
    60   21   22 1
    61   21   25 1
    62   21   60 1
    63   21   61 1
