@<TRIPOS>MOLECULE
*****
   42    45     0     0     0
SMALL
NO_CHARGES

@<TRIPOS>ATOM
      1 C1          6.1150   11.6329   -5.0394 C.ar      1 <0>         0.0000
      2 C2          6.8811   10.5376   -4.5725 C.ar      1 <0>         0.0000
      3 C3         11.9503    3.3914   -1.5478 C.ar      1 <0>         0.0000
      4 C4         12.4374    4.4649   -2.3020 C.ar      1 <0>         0.0000
      5 C5          4.7701   11.6860   -4.7470 C.ar      1 <0>         0.0000
      6 C6          6.3041    9.5249   -3.8312 C.ar      1 <0>         0.0000
      7 C7          2.7623   10.7269   -3.6926 C.ar      1 <0>         0.0000
      8 C8         10.6001    3.3214   -1.1813 C.ar      1 <0>         0.0000
      9 C9          2.1411    9.7433   -2.9576 C.ar      1 <0>         0.0000
     10 C10        11.5768    5.4955   -2.7063 C.ar      1 <0>         0.0000
     11 C11         4.1469   10.6592   -3.9861 C.ar      1 <0>         0.0000
     12 C12         4.9164    9.5453   -3.5091 C.ar      1 <0>         0.0000
     13 C13         4.2662    8.5125   -2.7382 C.ar      1 <0>         0.0000
     14 C14         9.7447    4.3498   -1.5856 C.ar      1 <0>         0.0000
     15 C15         2.8875    8.6391   -2.4807 C.ar      1 <0>         0.0000
     16 C16        10.2345    5.4310   -2.3450 C.ar      1 <0>         0.0000
     17 C17         7.7735    5.5759   -1.8388 C.2       1 <0>         0.0000
     18 C18         4.9145    7.3243   -2.1886 C.2       1 <0>         0.0000
     19 C19         7.6465    3.4565   -0.5512 C.3       1 <0>         0.0000
     20 C20         0.9072    7.7204   -1.4588 C.3       1 <0>         0.0000
     21 N1          6.5151    5.8381   -1.6917 N.2       1 <0>         0.0000
     22 N2          6.1687    7.0284   -2.3147 N.2       1 <0>         0.0000
     23 N3          8.3819    4.4520   -1.3181 N.pl3     1 <0>         0.0000
     24 O1          2.2996    7.6426   -1.7458 O.3       1 <0>         0.0000
     25 S1          8.9503    6.5884   -2.7227 S.3       1 <0>         0.0000
     26 H1          6.5856   12.4210   -5.6214 H         1 <0>         0.0000
     27 H2          7.9433   10.4905   -4.8002 H         1 <0>         0.0000
     28 H3         12.6254    2.5979   -1.2395 H         1 <0>         0.0000
     29 H4         13.4873    4.5035   -2.5776 H         1 <0>         0.0000
     30 H5          4.1607   12.5173   -5.0946 H         1 <0>         0.0000
     31 H6          6.9050    8.6978   -3.4841 H         1 <0>         0.0000
     32 H7          2.1860   11.5739   -4.0575 H         1 <0>         0.0000
     33 H8         10.2298    2.4855   -0.5962 H         1 <0>         0.0000
     34 H9          1.0812    9.8218   -2.7487 H         1 <0>         0.0000
     35 H10        11.9515    6.3304   -3.2919 H         1 <0>         0.0000
     36 H11         4.2743    6.6425   -1.6297 H         1 <0>         0.0000
     37 H12         8.0625    3.3723    0.4585 H         1 <0>         0.0000
     38 H13         7.7009    2.4807   -1.0456 H         1 <0>         0.0000
     39 H14         6.6075    3.7749   -0.4901 H         1 <0>         0.0000
     40 H15         0.6792    6.8284   -0.8737 H         1 <0>         0.0000
     41 H16         0.3060    7.7140   -2.3758 H         1 <0>         0.0000
     42 H17         0.6673    8.6115   -0.8664 H         1 <0>         0.0000
@<TRIPOS>BOND
     1    1    2 ar
     2    1    5 ar
     3    1   26 1
     4    2    6 ar
     5    2   27 1
     6    3    4 ar
     7    3    8 ar
     8    3   28 1
     9    4   10 ar
    10    4   29 1
    11    5   11 ar
    12    5   30 1
    13    6   12 ar
    14    6   31 1
    15    7    9 ar
    16    7   11 ar
    17    7   32 1
    18    8   14 ar
    19    8   33 1
    20    9   15 ar
    21    9   34 1
    22   10   16 ar
    23   10   35 1
    24   11   12 ar
    25   12   13 ar
    26   13   15 ar
    27   13   18 1
    28   14   16 ar
    29   14   23 1
    30   15   24 1
    31   16   25 1
    32   17   21 2
    33   17   23 1
    34   17   25 1
    35   18   22 2
    36   18   36 1
    37   19   23 1
    38   19   37 1
    39   19   38 1
    40   19   39 1
    41   20   24 1
    42   20   40 1
    43   20   41 1
    44   20   42 1
    45   21   22 1
