@<TRIPOS>MOLECULE
*****
   66    68     0     0     0
SMALL
NO_CHARGES

@<TRIPOS>ATOM
      1 C1          1.0698   -6.9651   -4.0349 C.ar      1 <0>         0.0000
      2 C2          0.7297   -6.5734   -2.7438 C.ar      1 <0>         0.0000
      3 C3         -1.4360   -1.7023   -0.4199 C.ar      1 <0>         0.0000
      4 C4          0.9566   -1.9447   -0.2582 C.ar      1 <0>         0.0000
      5 C5         -0.8719   -4.9916   -3.6648 C.ar      1 <0>         0.0000
      6 C6         -1.5595   -3.0332   -0.8446 C.ar      1 <0>         0.0000
      7 C7          0.4913   -6.3635   -5.1607 C.ar      1 <0>         0.0000
      8 C8         -0.1937   -1.1537   -0.1040 C.ar      1 <0>         0.0000
      9 C9         -0.2155   -5.5670   -2.5615 C.ar      1 <0>         0.0000
     10 C10        -0.4136   -3.8236   -0.9483 C.ar      1 <0>         0.0000
     11 C11         0.8599   -3.2679   -0.6961 C.ar      1 <0>         0.0000
     12 C12        -0.4903   -5.3851   -4.9634 C.ar      1 <0>         0.0000
     13 C13        -1.9562   -4.0010   -3.4119 C.2       1 <0>         0.0000
     14 C14        -2.9097   -3.5613   -1.2795 C.3       1 <0>         0.0000
     15 C15        -0.0649    0.2763    0.3679 C.3       1 <0>         0.0000
     16 C16         4.3366   -5.8226    0.8981 C.3       1 <0>         0.0000
     17 C17         4.1460   -4.4080   -6.7207 C.3       1 <0>         0.0000
     18 C18         1.8438   -3.8957   -7.6342 C.3       1 <0>         0.0000
     19 C19         4.0836   -4.7451   -2.8765 C.3       1 <0>         0.0000
     20 C20        -2.3711   -5.3444   -6.3976 C.3       1 <0>         0.0000
     21 C21         4.1591   -5.9116   -0.6217 C.3       1 <0>         0.0000
     22 C22         2.4179   -6.2349   -6.7814 C.3       1 <0>         0.0000
     23 C23         3.2398   -3.5364   -0.8267 C.3       1 <0>         0.0000
     24 C24         0.9791   -6.7299   -6.5436 C.3       1 <0>         0.0000
     25 C25         2.6468   -4.7224   -6.6186 C.3       1 <0>         0.0000
     26 C26         4.2388   -4.5626   -1.3593 C.3       1 <0>         0.0000
     27 O1         -2.1253   -2.9414   -3.9714 O.2       1 <0>         0.0000
     28 O2         -0.4869   -5.1806   -1.2583 O.3       1 <0>         0.0000
     29 O3         -2.7661   -4.4609   -2.3961 O.3       1 <0>         0.0000
     30 O4          0.9229   -8.1675   -6.6483 O.3       1 <0>         0.0000
     31 O5         -1.0891   -4.7979   -6.0569 O.3       1 <0>         0.0000
     32 O6          1.9207   -4.0920   -0.9148 O.3       1 <0>         0.0000
     33 H1          1.8117   -7.7438   -4.1838 H         1 <0>         0.0000
     34 H2          1.2071   -7.0040   -1.8707 H         1 <0>         0.0000
     35 H3         -2.3276   -1.0820   -0.3680 H         1 <0>         0.0000
     36 H4          1.9267   -1.5128   -0.0377 H         1 <0>         0.0000
     37 H5         -3.3855   -4.1670   -0.5043 H         1 <0>         0.0000
     38 H6         -3.5696   -2.7280   -1.5389 H         1 <0>         0.0000
     39 H7          0.3387    0.3206    1.3860 H         1 <0>         0.0000
     40 H8          0.6121    0.8475   -0.2768 H         1 <0>         0.0000
     41 H9         -1.0333    0.7832    0.3700 H         1 <0>         0.0000
     42 H10         5.2667   -5.3054    1.1633 H         1 <0>         0.0000
     43 H11         3.5065   -5.2886    1.3711 H         1 <0>         0.0000
     44 H12         4.3753   -6.8222    1.3435 H         1 <0>         0.0000
     45 H13         4.5363   -4.6699   -7.7123 H         1 <0>         0.0000
     46 H14         4.3342   -3.3403   -6.5621 H         1 <0>         0.0000
     47 H15         4.7229   -4.9650   -5.9745 H         1 <0>         0.0000
     48 H16         2.1024   -4.1855   -8.6612 H         1 <0>         0.0000
     49 H17         0.7665   -4.0190   -7.5002 H         1 <0>         0.0000
     50 H18         2.0683   -2.8289   -7.5254 H         1 <0>         0.0000
     51 H19         3.0893   -5.1243   -3.1249 H         1 <0>         0.0000
     52 H20         4.8225   -5.4574   -3.2592 H         1 <0>         0.0000
     53 H21         4.2264   -3.7984   -3.4094 H         1 <0>         0.0000
     54 H22        -2.7178   -4.7876   -7.2698 H         1 <0>         0.0000
     55 H23        -3.0877   -5.2154   -5.5791 H         1 <0>         0.0000
     56 H24        -2.2833   -6.4103   -6.6418 H         1 <0>         0.0000
     57 H25         3.1965   -6.3811   -0.8483 H         1 <0>         0.0000
     58 H26         4.9314   -6.5691   -1.0398 H         1 <0>         0.0000
     59 H27         2.7206   -6.5309   -7.7981 H         1 <0>         0.0000
     60 H28         3.0715   -6.7785   -6.0880 H         1 <0>         0.0000
     61 H29         3.2928   -2.6196   -1.4278 H         1 <0>         0.0000
     62 H30         3.4547   -3.2754    0.2170 H         1 <0>         0.0000
     63 H31         0.3109   -6.2833   -7.2854 H         1 <0>         0.0000
     64 H32         2.3140   -4.4399   -5.6122 H         1 <0>         0.0000
     65 H33         5.2299   -4.1277   -1.1624 H         1 <0>         0.0000
     66 H34         1.3344   -8.4129   -7.4926 H         1 <0>         0.0000
@<TRIPOS>BOND
     1    1    2 ar
     2    1    7 ar
     3    1   33 1
     4    2    9 ar
     5    2   34 1
     6    3    6 ar
     7    3    8 ar
     8    3   35 1
     9    4    8 ar
    10    4   11 ar
    11    4   36 1
    12    5    9 ar
    13    5   12 ar
    14    5   13 1
    15    6   10 ar
    16    6   14 1
    17    7   12 ar
    18    7   24 1
    19    8   15 1
    20    9   28 1
    21   10   11 ar
    22   10   28 1
    23   11   32 1
    24   12   31 1
    25   13   27 2
    26   13   29 1
    27   14   29 1
    28   14   37 1
    29   14   38 1
    30   15   39 1
    31   15   40 1
    32   15   41 1
    33   16   21 1
    34   16   42 1
    35   16   43 1
    36   16   44 1
    37   17   25 1
    38   17   45 1
    39   17   46 1
    40   17   47 1
    41   18   25 1
    42   18   48 1
    43   18   49 1
    44   18   50 1
    45   19   26 1
    46   19   51 1
    47   19   52 1
    48   19   53 1
    49   20   31 1
    50   20   54 1
    51   20   55 1
    52   20   56 1
    53   21   26 1
    54   21   57 1
    55   21   58 1
    56   22   24 1
    57   22   25 1
    58   22   59 1
    59   22   60 1
    60   23   26 1
    61   23   32 1
    62   23   61 1
    63   23   62 1
    64   24   30 1
    65   24   63 1
    66   25   64 1
    67   26   65 1
    68   30   66 1
