@<TRIPOS>MOLECULE
*****
   65    69     0     0     0
SMALL
NO_CHARGES

@<TRIPOS>ATOM
      1 C1          5.3504   -3.7338    2.7369 C.ar      1 <0>         0.0000
      2 C2          6.9438   -1.9232    2.5077 C.ar      1 <0>         0.0000
      3 C3          3.7277   -2.2778    0.6454 C.ar      1 <0>         0.0000
      4 C4         -0.6510    0.7038    4.0849 C.ar      1 <0>         0.0000
      5 C5          6.2799   -4.4479    3.4947 C.ar      1 <0>         0.0000
      6 C6          7.8792   -2.6414    3.2472 C.ar      1 <0>         0.0000
      7 C7          2.7311   -1.5448   -0.0037 C.ar      1 <0>         0.0000
      8 C8         -0.7464    0.9002    2.7089 C.ar      1 <0>         0.0000
      9 C9          4.5439   -0.2731    1.7327 C.ar      1 <0>         0.0000
     10 C10         0.5217   -1.1510    2.3859 C.ar      1 <0>         0.0000
     11 C11         5.6654   -2.4548    2.2455 C.ar      1 <0>         0.0000
     12 C12         4.6472   -1.6605    1.5161 C.ar      1 <0>         0.0000
     13 C13         0.0816   -0.3668    4.6310 C.ar      1 <0>         0.0000
     14 C14         3.5269    0.4559    1.1277 C.ar      1 <0>         0.0000
     15 C15         0.6891   -1.2975    3.7693 C.ar      1 <0>         0.0000
     16 C16         7.5431   -3.9059    3.7516 C.ar      1 <0>         0.0000
     17 C17         2.6184   -0.1816    0.2788 C.ar      1 <0>         0.0000
     18 C18        -0.1446   -0.0440    1.8671 C.ar      1 <0>         0.0000
     19 C19         2.1846   -4.7459    3.5073 C.2       1 <0>         0.0000
     20 C20         0.2349   -0.4947    6.1339 C.3       1 <0>         0.0000
     21 C21         0.7209   -1.8853    6.5618 C.3       1 <0>         0.0000
     22 C22         1.9410   -2.2985    5.7327 C.3       1 <0>         0.0000
     23 C23         1.9832    2.0857    0.3171 C.3       1 <0>         0.0000
     24 C24         1.5783   -2.4307    4.2456 C.3       1 <0>         0.0000
     25 C25         3.1571    1.9145    1.3304 C.3       1 <0>         0.0000
     26 C26         2.7036    2.1567    2.7832 C.3       1 <0>         0.0000
     27 C27         4.3146    2.8629    0.9780 C.3       1 <0>         0.0000
     28 C28         0.9961   -3.8334    3.9076 C.3       1 <0>         0.0000
     29 C29         8.5709   -4.6762    4.5232 C.3       1 <0>         0.0000
     30 N1          1.5973    0.7247   -0.1580 N.pl3     1 <0>         0.0000
     31 O1          2.4601   -4.7441    2.2659 O.co2     1 <0>         0.0000
     32 O2          2.8195   -5.3021    4.4433 O.co2     1 <0>         0.0000
     33 O3         -0.2161   -0.9999   -0.6144 O.2       1 <0>         0.0000
     34 O4         -0.8414    1.4446   -0.2142 O.2       1 <0>         0.0000
     35 F1          8.0408   -5.6726    5.2699 F         1 <0>         0.0000
     36 F2          9.5026   -5.2621    3.7068 F         1 <0>         0.0000
     37 F3          9.2853   -3.8813    5.3748 F         1 <0>         0.0000
     38 S1         -0.0393    0.2585    0.1094 S.o2      1 <0>         0.0000
     39 H1          4.3667   -4.1737    2.5636 H         1 <0>         0.0000
     40 H2          7.2147   -0.9477    2.1117 H         1 <0>         0.0000
     41 H3          3.7612   -3.3528    0.5070 H         1 <0>         0.0000
     42 H4         -1.1300    1.4139    4.7572 H         1 <0>         0.0000
     43 H5          5.9871   -5.4106    3.9013 H         1 <0>         0.0000
     44 H6          8.8632   -2.2218    3.4376 H         1 <0>         0.0000
     45 H7          2.0113   -2.0373   -0.6476 H         1 <0>         0.0000
     46 H8         -1.2678    1.7528    2.2860 H         1 <0>         0.0000
     47 H9          5.2180    0.2140    2.4334 H         1 <0>         0.0000
     48 H10         0.9501   -1.9003    1.7312 H         1 <0>         0.0000
     49 H11         0.9605    0.2580    6.4752 H         1 <0>         0.0000
     50 H12        -0.7162   -0.2430    6.6199 H         1 <0>         0.0000
     51 H13         0.9595   -1.8795    7.6319 H         1 <0>         0.0000
     52 H14        -0.0850   -2.6159    6.4188 H         1 <0>         0.0000
     53 H15         2.7264   -1.5396    5.8581 H         1 <0>         0.0000
     54 H16         2.3566   -3.2537    6.0654 H         1 <0>         0.0000
     55 H17         1.1227    2.5985    0.7485 H         1 <0>         0.0000
     56 H18         2.3041    2.6576   -0.5589 H         1 <0>         0.0000
     57 H19         2.5015   -2.3348    3.6629 H         1 <0>         0.0000
     58 H20         2.3665    3.1921    2.9171 H         1 <0>         0.0000
     59 H21         3.5315    1.9759    3.4772 H         1 <0>         0.0000
     60 H22         1.8853    1.4902    3.0604 H         1 <0>         0.0000
     61 H23         3.9954    3.9102    1.0480 H         1 <0>         0.0000
     62 H24         4.6766    2.6793   -0.0388 H         1 <0>         0.0000
     63 H25         5.1555    2.7234    1.6658 H         1 <0>         0.0000
     64 H26         0.2970   -3.7633    3.0706 H         1 <0>         0.0000
     65 H27         0.4600   -4.2297    4.7777 H         1 <0>         0.0000
@<TRIPOS>BOND
     1    1    5 ar
     2    1   11 ar
     3    1   39 1
     4    2    6 ar
     5    2   11 ar
     6    2   40 1
     7    3    7 ar
     8    3   12 ar
     9    3   41 1
    10    4    8 ar
    11    4   13 ar
    12    4   42 1
    13    5   16 ar
    14    5   43 1
    15    6   16 ar
    16    6   44 1
    17    7   17 ar
    18    7   45 1
    19    8   18 ar
    20    8   46 1
    21    9   12 ar
    22    9   14 ar
    23    9   47 1
    24   10   15 ar
    25   10   18 ar
    26   10   48 1
    27   11   12 1
    28   13   15 ar
    29   13   20 1
    30   14   17 ar
    31   14   25 1
    32   15   24 1
    33   16   29 1
    34   17   30 1
    35   18   38 1
    36   19   28 1
    37   19   31 1
    38   19   32 2
    39   20   21 1
    40   20   49 1
    41   20   50 1
    42   21   22 1
    43   21   51 1
    44   21   52 1
    45   22   24 1
    46   22   53 1
    47   22   54 1
    48   23   25 1
    49   23   30 1
    50   23   55 1
    51   23   56 1
    52   24   28 1
    53   24   57 1
    54   25   26 1
    55   25   27 1
    56   26   58 1
    57   26   59 1
    58   26   60 1
    59   27   61 1
    60   27   62 1
    61   27   63 1
    62   28   64 1
    63   28   65 1
    64   29   35 1
    65   29   36 1
    66   29   37 1
    67   30   38 1
    68   33   38 2
    69   34   38 2
