@<TRIPOS>MOLECULE
*****
   42    45     0     0     0
SMALL
NO_CHARGES

@<TRIPOS>ATOM
      1 C1          5.6617   10.2282   -6.2423 C.ar      1 <0>         0.0000
      2 C2          6.3012    9.0792   -5.7167 C.ar      1 <0>         0.0000
      3 C3          4.4046    1.0116    2.9046 C.ar      1 <0>         0.0000
      4 C4          3.0494    1.3611    2.9014 C.ar      1 <0>         0.0000
      5 C5          4.6231   10.8070   -5.5449 C.ar      1 <0>         0.0000
      6 C6          5.9036    8.5426   -4.5080 C.ar      1 <0>         0.0000
      7 C7          3.1078   10.8601   -3.5897 C.ar      1 <0>         0.0000
      8 C8          5.3447    1.7634    2.1884 C.ar      1 <0>         0.0000
      9 C9          2.6913   10.3292   -2.3921 C.ar      1 <0>         0.0000
     10 C10         2.6064    2.4766    2.1769 C.ar      1 <0>         0.0000
     11 C11         4.1906   10.2751   -4.2999 C.ar      1 <0>         0.0000
     12 C12         4.8491    9.1272   -3.7498 C.ar      1 <0>         0.0000
     13 C13         4.4126    8.5876   -2.4854 C.ar      1 <0>         0.0000
     14 C14         4.9001    2.8745    1.4672 C.ar      1 <0>         0.0000
     15 C15         3.3360    9.1952   -1.8373 C.ar      1 <0>         0.0000
     16 C16         3.5365    3.2269    1.4635 C.ar      1 <0>         0.0000
     17 C17         4.9862    4.7597    0.0913 C.2       1 <0>         0.0000
     18 C18         5.1668    7.4817   -1.8841 C.2       1 <0>         0.0000
     19 C19         7.1225    3.5818    0.5564 C.3       1 <0>         0.0000
     20 C20         1.7985    7.8833   -0.6215 C.3       1 <0>         0.0000
     21 N1          5.5514    5.6523   -0.6568 N.2       1 <0>         0.0000
     22 N2          4.6321    6.5700   -1.1450 N.2       1 <0>         0.0000
     23 N3          5.6815    3.7368    0.7010 N.pl3     1 <0>         0.0000
     24 O1          2.9178    8.7784   -0.5960 O.3       1 <0>         0.0000
     25 S1          3.2451    4.6679    0.4794 S.3       1 <0>         0.0000
     26 H1          5.9842   10.6416   -7.1942 H         1 <0>         0.0000
     27 H2          7.1072    8.6097   -6.2747 H         1 <0>         0.0000
     28 H3          4.7373    0.1454    3.4695 H         1 <0>         0.0000
     29 H4          2.3337    0.7672    3.4625 H         1 <0>         0.0000
     30 H5          4.1132   11.6819   -5.9421 H         1 <0>         0.0000
     31 H6          6.3948    7.6451   -4.1482 H         1 <0>         0.0000
     32 H7          2.6163   11.7376   -4.0033 H         1 <0>         0.0000
     33 H8          6.3941    1.4862    2.1958 H         1 <0>         0.0000
     34 H9          1.8790   10.7781   -1.8273 H         1 <0>         0.0000
     35 H10         1.5551    2.7510    2.1728 H         1 <0>         0.0000
     36 H11         6.2441    7.4437   -2.0664 H         1 <0>         0.0000
     37 H12         7.3554    2.6155    0.0966 H         1 <0>         0.0000
     38 H13         7.6096    3.6420    1.5354 H         1 <0>         0.0000
     39 H14         7.4885    4.3847   -0.0808 H         1 <0>         0.0000
     40 H15         1.6046    7.6085    0.4168 H         1 <0>         0.0000
     41 H16         2.0399    6.9851   -1.1968 H         1 <0>         0.0000
     42 H17         0.9136    8.3770   -1.0452 H         1 <0>         0.0000
@<TRIPOS>BOND
     1    1    2 ar
     2    1    5 ar
     3    1   26 1
     4    2    6 ar
     5    2   27 1
     6    3    4 ar
     7    3    8 ar
     8    3   28 1
     9    4   10 ar
    10    4   29 1
    11    5   11 ar
    12    5   30 1
    13    6   12 ar
    14    6   31 1
    15    7    9 ar
    16    7   11 ar
    17    7   32 1
    18    8   14 ar
    19    8   33 1
    20    9   15 ar
    21    9   34 1
    22   10   16 ar
    23   10   35 1
    24   11   12 ar
    25   12   13 ar
    26   13   15 ar
    27   13   18 1
    28   14   16 ar
    29   14   23 1
    30   15   24 1
    31   16   25 1
    32   17   21 2
    33   17   23 1
    34   17   25 1
    35   18   22 2
    36   18   36 1
    37   19   23 1
    38   19   37 1
    39   19   38 1
    40   19   39 1
    41   20   24 1
    42   20   40 1
    43   20   41 1
    44   20   42 1
    45   21   22 1
