@<TRIPOS>MOLECULE
*****
   20    20     0     0     0
SMALL
NO_CHARGES

@<TRIPOS>ATOM
      1 C1          0.3194   -0.4816    1.0862 C.ar      1 <0>         0.0000
      2 C2          1.3615    0.2085    1.7000 C.ar      1 <0>         0.0000
      3 C3         -0.1954   -1.6146    1.7267 C.ar      1 <0>         0.0000
      4 C4          1.8437   -0.2342    2.9378 C.ar      1 <0>         0.0000
      5 C5          1.2545   -1.3830    3.5124 C.ar      1 <0>         0.0000
      6 C6          1.6926   -1.9494    4.8415 C.2       1 <0>         0.0000
      7 C7          1.4521   -3.4277    5.0588 C.3       1 <0>         0.0000
      8 C8          2.6023    1.4794    4.3910 C.3       1 <0>         0.0000
      9 N1          0.2692   -2.0612    2.8945 N.ar      1 <0>         0.0000
     10 O1          2.1984   -1.2425    5.7029 O.2       1 <0>         0.0000
     11 O2          2.9213    0.4029    3.4906 O.3       1 <0>         0.0000
     12 H1         -0.0782   -0.1635    0.1264 H         1 <0>         0.0000
     13 H2          1.8244    1.0764    1.2380 H         1 <0>         0.0000
     14 H3         -1.0025   -2.1894    1.2756 H         1 <0>         0.0000
     15 H4          1.9133   -4.0138    4.2572 H         1 <0>         0.0000
     16 H5          0.3804   -3.6421    5.0207 H         1 <0>         0.0000
     17 H6          1.8647   -3.7158    6.0265 H         1 <0>         0.0000
     18 H7          3.5592    1.8945    4.7111 H         1 <0>         0.0000
     19 H8          2.0557    1.1003    5.2575 H         1 <0>         0.0000
     20 H9          2.0203    2.2522    3.8725 H         1 <0>         0.0000
@<TRIPOS>BOND
     1    1    2 ar
     2    1    3 ar
     3    1   12 1
     4    2    4 ar
     5    2   13 1
     6    3    9 ar
     7    3   14 1
     8    4    5 ar
     9    4   11 1
    10    5    6 1
    11    5    9 ar
    12    6    7 1
    13    6   10 2
    14    7   15 1
    15    7   16 1
    16    7   17 1
    17    8   11 1
    18    8   18 1
    19    8   19 1
    20    8   20 1
