@<TRIPOS>MOLECULE
*****
   56    60     0     0     0
SMALL
NO_CHARGES

@<TRIPOS>ATOM
      1 C1          1.5836   -0.0475    1.0372 C.ar      1 <0>         0.0000
      2 C2          1.5395   -1.3222    0.4351 C.ar      1 <0>         0.0000
      3 C3         -3.1780   -4.6220   -1.3554 C.ar      1 <0>         0.0000
      4 C4          0.7219    0.2867    2.0838 C.ar      1 <0>         0.0000
      5 C5         -0.5698    1.2808    4.9745 C.ar      1 <0>         0.0000
      6 C6         -2.9103    0.7556    4.8113 C.ar      1 <0>         0.0000
      7 C7         -2.2884   -4.6754   -0.2720 C.ar      1 <0>         0.0000
      8 C8          0.6220   -2.2834    0.8674 C.ar      1 <0>         0.0000
      9 C9         -4.3486   -3.8712   -1.2769 C.ar      1 <0>         0.0000
     10 C10        -0.8586    2.3558    5.8118 C.ar      1 <0>         0.0000
     11 C11        -3.2113    1.8282    5.6582 C.ar      1 <0>         0.0000
     12 C12        -3.7569   -3.2158    0.9879 C.ar      1 <0>         0.0000
     13 C13        -0.2027   -0.6660    2.5529 C.ar      1 <0>         0.0000
     14 C14        -1.5861    0.4565    4.4456 C.ar      1 <0>         0.0000
     15 C15        -1.2578   -0.6597    3.5445 C.2       1 <0>         0.0000
     16 C16        -2.5793   -3.9732    0.9004 C.ar      1 <0>         0.0000
     17 C17        -0.2302   -1.9470    1.9235 C.ar      1 <0>         0.0000
     18 C18        -2.1857    2.6400    6.1574 C.ar      1 <0>         0.0000
     19 C19        -4.6364   -3.1633   -0.0961 C.ar      1 <0>         0.0000
     20 C20        -1.8699   -1.9088    3.4883 C.2       1 <0>         0.0000
     21 C21        -3.0569   -2.5069    4.2529 C.2       1 <0>         0.0000
     22 C22        -4.9006    6.0842    8.4231 C.3       1 <0>         0.0000
     23 C23        -3.6443    6.5900    7.7416 C.3       1 <0>         0.0000
     24 C24        -3.6770    5.1982    8.3265 C.3       1 <0>         0.0000
     25 C25        -6.0903   -1.7001    1.1069 C.3       1 <0>         0.0000
     26 C26        -1.6473   -4.0132    2.0999 C.3       1 <0>         0.0000
     27 C27        -3.7096    4.0069    7.4068 C.3       1 <0>         0.0000
     28 N1         -1.2256   -2.6879    2.5318 N.pl3     1 <0>         0.0000
     29 O1         -2.7910   -3.5008    4.9702 O.co2     1 <0>         0.0000
     30 O2         -4.1742   -1.9618    4.0117 O.co2     1 <0>         0.0000
     31 O3         -5.8058   -2.4482   -0.0834 O.3       1 <0>         0.0000
     32 O4         -2.3776    3.7297    6.9886 O.3       1 <0>         0.0000
     33 H1          2.2930    0.6916    0.6704 H         1 <0>         0.0000
     34 H2          2.2146   -1.5557   -0.3853 H         1 <0>         0.0000
     35 H3         -2.9517   -5.1648   -2.2709 H         1 <0>         0.0000
     36 H4          0.7520    1.2843    2.5127 H         1 <0>         0.0000
     37 H5          0.4686    1.0541    4.7519 H         1 <0>         0.0000
     38 H6         -3.7083    0.1212    4.4366 H         1 <0>         0.0000
     39 H7         -1.3713   -5.2565   -0.3455 H         1 <0>         0.0000
     40 H8          0.5617   -3.2529    0.3806 H         1 <0>         0.0000
     41 H9         -5.0461   -3.8156   -2.1086 H         1 <0>         0.0000
     42 H10        -0.0663    2.9789    6.2193 H         1 <0>         0.0000
     43 H11        -4.2498    2.0122    5.9136 H         1 <0>         0.0000
     44 H12        -3.9758   -2.6801    1.9062 H         1 <0>         0.0000
     45 H13        -5.1616    6.4926    9.3954 H         1 <0>         0.0000
     46 H14        -5.7549    5.8397    7.7968 H         1 <0>         0.0000
     47 H15        -3.6505    6.6745    6.6585 H         1 <0>         0.0000
     48 H16        -3.0523    7.3458    8.2495 H         1 <0>         0.0000
     49 H17        -3.1124    5.0438    9.2429 H         1 <0>         0.0000
     50 H18        -7.0495   -1.2122    0.9217 H         1 <0>         0.0000
     51 H19        -5.3186   -0.9469    1.2977 H         1 <0>         0.0000
     52 H20        -6.1600   -2.3470    1.9870 H         1 <0>         0.0000
     53 H21        -2.1360   -4.4831    2.9570 H         1 <0>         0.0000
     54 H22        -0.7541   -4.5999    1.8637 H         1 <0>         0.0000
     55 H23        -4.3465    4.2213    6.5355 H         1 <0>         0.0000
     56 H24        -4.1320    3.1331    7.9233 H         1 <0>         0.0000
@<TRIPOS>BOND
     1    1    2 ar
     2    1    4 ar
     3    1   33 1
     4    2    8 ar
     5    2   34 1
     6    3    7 ar
     7    3    9 ar
     8    3   35 1
     9    4   13 ar
    10    4   36 1
    11    5   10 ar
    12    5   14 ar
    13    5   37 1
    14    6   11 ar
    15    6   14 ar
    16    6   38 1
    17    7   16 ar
    18    7   39 1
    19    8   17 ar
    20    8   40 1
    21    9   19 ar
    22    9   41 1
    23   10   18 ar
    24   10   42 1
    25   11   18 ar
    26   11   43 1
    27   12   16 ar
    28   12   19 ar
    29   12   44 1
    30   13   15 1
    31   13   17 ar
    32   14   15 1
    33   15   20 2
    34   16   26 1
    35   17   28 1
    36   18   32 1
    37   19   31 1
    38   20   21 1
    39   20   28 1
    40   21   29 1
    41   21   30 2
    42   22   23 1
    43   22   24 1
    44   22   45 1
    45   22   46 1
    46   23   24 1
    47   23   47 1
    48   23   48 1
    49   24   27 1
    50   24   49 1
    51   25   31 1
    52   25   50 1
    53   25   51 1
    54   25   52 1
    55   26   28 1
    56   26   53 1
    57   26   54 1
    58   27   32 1
    59   27   55 1
    60   27   56 1
