@<TRIPOS>MOLECULE
*****
   25    26     0     0     0
SMALL
NO_CHARGES

@<TRIPOS>ATOM
      1 C1         -3.0069    1.1165   -4.7259 C.ar      1 <0>         0.0000
      2 C2         -4.1577    0.7498   -5.4364 C.ar      1 <0>         0.0000
      3 C3         -3.5424   -1.5884   -5.2245 C.ar      1 <0>         0.0000
      4 C4         -2.1132    0.1465   -4.2579 C.ar      1 <0>         0.0000
      5 C5         -2.4110   -1.2022   -4.5243 C.ar      1 <0>         0.0000
      6 C6         -4.4159   -0.5950   -5.6797 C.ar      1 <0>         0.0000
      7 C7          2.8599    2.1559   -2.7415 C.3       1 <0>         0.0000
      8 C8          2.2230    3.4307   -2.1748 C.3       1 <0>         0.0000
      9 C9          0.6600    1.7522   -2.5054 C.3       1 <0>         0.0000
     10 C10        -0.6465    1.7469   -3.2761 C.3       1 <0>         0.0000
     11 O1          1.7508    1.5052   -3.3667 O.3       1 <0>         0.0000
     12 O2          0.8540    3.0536   -1.9458 O.3       1 <0>         0.0000
     13 O3         -0.9716    0.3880   -3.5595 O.3       1 <0>         0.0000
     14 F1         -1.5596   -2.1505   -4.0760 F         1 <0>         0.0000
     15 Br1        -5.9875   -1.1063   -6.6502 Br        1 <0>         0.0000
     16 H1         -2.8187    2.1683   -4.5443 H         1 <0>         0.0000
     17 H2         -4.8397    1.5144   -5.7924 H         1 <0>         0.0000
     18 H3         -3.7250   -2.6425   -5.4028 H         1 <0>         0.0000
     19 H4          3.6222    2.3371   -3.5009 H         1 <0>         0.0000
     20 H5          3.2764    1.5236   -1.9451 H         1 <0>         0.0000
     21 H6          2.6729    3.7520   -1.2308 H         1 <0>         0.0000
     22 H7          2.2508    4.2575   -2.8933 H         1 <0>         0.0000
     23 H8          0.6352    1.0054   -1.6961 H         1 <0>         0.0000
     24 H9         -0.5203    2.3245   -4.1990 H         1 <0>         0.0000
     25 H10        -1.4225    2.2092   -2.6547 H         1 <0>         0.0000
@<TRIPOS>BOND
     1    1    2 ar
     2    1    4 ar
     3    1   16 1
     4    2    6 ar
     5    2   17 1
     6    3    5 ar
     7    3    6 ar
     8    3   18 1
     9    4    5 ar
    10    4   13 1
    11    5   14 1
    12    6   15 1
    13    7    8 1
    14    7   11 1
    15    7   19 1
    16    7   20 1
    17    8   12 1
    18    8   21 1
    19    8   22 1
    20    9   10 1
    21    9   12 1
    22    9   11 1
    23    9   23 1
    24   10   13 1
    25   10   24 1
    26   10   25 1
