@<TRIPOS>MOLECULE
*****
   38    39     0     0     0
SMALL
NO_CHARGES

@<TRIPOS>ATOM
      1 C1         -4.2064    0.0351    1.7954 C.1       1 <0>         0.0000
      2 C2         -3.6520   -0.7636   -0.5048 C.2       1 <0>         0.0000
      3 C3         -0.7311   -0.8236    1.4204 C.3       1 <0>         0.0000
      4 C4          0.1100    2.2918   -1.4284 C.3       1 <0>         0.0000
      5 C5          0.3078   -0.5216    0.3284 C.3       1 <0>         0.0000
      6 C6         -0.9684    1.3426   -0.8929 C.3       1 <0>         0.0000
      7 C7         -1.8165   -1.7769    0.9066 C.3       1 <0>         0.0000
      8 C8          0.7199    1.5022   -2.5859 C.3       1 <0>         0.0000
      9 C9         -1.4120   -1.1157   -1.4136 C.3       1 <0>         0.0000
     10 C10        -0.3494   -0.0782   -0.9953 C.3       1 <0>         0.0000
     11 C11         3.2728   -0.6343   -1.6591 C.3       1 <0>         0.0000
     12 C12        -4.6203   -0.8453    0.6988 C.3       1 <0>         0.0000
     13 N1         -3.8314    0.7396    2.6415 N.1       1 <0>         0.0000
     14 N2         -2.3976   -1.2660   -0.3384 N.am      1 <0>         0.0000
     15 N3          0.6425    0.1086   -2.0952 N.pl3     1 <0>         0.0000
     16 O1         -4.0564   -0.2605   -1.5515 O.2       1 <0>         0.0000
     17 O2          2.0755   -0.7032   -3.9964 O.2       1 <0>         0.0000
     18 O3          1.3075   -2.3250   -2.1713 O.2       1 <0>         0.0000
     19 S1          1.7663   -0.9969   -2.5956 S.o2      1 <0>         0.0000
     20 H1         -0.2356   -1.2785    2.2851 H         1 <0>         0.0000
     21 H2         -1.2076    0.0948    1.7749 H         1 <0>         0.0000
     22 H3         -0.2982    3.2537   -1.7488 H         1 <0>         0.0000
     23 H4          0.8719    2.4826   -0.6648 H         1 <0>         0.0000
     24 H5          1.0016    0.2538    0.6731 H         1 <0>         0.0000
     25 H6          0.8898   -1.4294    0.1410 H         1 <0>         0.0000
     26 H7         -1.2717    1.5827    0.1274 H         1 <0>         0.0000
     27 H8         -1.8617    1.3970   -1.5211 H         1 <0>         0.0000
     28 H9         -1.3818   -2.7613    0.6905 H         1 <0>         0.0000
     29 H10        -2.5855   -1.9214    1.6636 H         1 <0>         0.0000
     30 H11         0.1407    1.6098   -3.5091 H         1 <0>         0.0000
     31 H12         1.7518    1.7868   -2.8059 H         1 <0>         0.0000
     32 H13        -1.9225   -0.7954   -2.3198 H         1 <0>         0.0000
     33 H14        -0.9359   -2.0821   -1.5951 H         1 <0>         0.0000
     34 H15         4.0493   -1.3033   -2.0352 H         1 <0>         0.0000
     35 H16         3.5564    0.4042   -1.8363 H         1 <0>         0.0000
     36 H17         3.0859   -0.8175   -0.6014 H         1 <0>         0.0000
     37 H18        -5.5936   -0.5227    0.3256 H         1 <0>         0.0000
     38 H19        -4.7185   -1.8680    1.0752 H         1 <0>         0.0000
@<TRIPOS>BOND
     1    1   12 1
     2    1   13 3
     3    2   12 1
     4    2   14 am
     5    2   16 2
     6    3    5 1
     7    3    7 1
     8    3   20 1
     9    3   21 1
    10    4    6 1
    11    4    8 1
    12    4   22 1
    13    4   23 1
    14    5   10 1
    15    5   24 1
    16    5   25 1
    17    6   10 1
    18    6   26 1
    19    6   27 1
    20    7   14 1
    21    7   28 1
    22    7   29 1
    23    8   15 1
    24    8   30 1
    25    8   31 1
    26    9   10 1
    27    9   14 1
    28    9   32 1
    29    9   33 1
    30   10   15 1
    31   11   19 1
    32   11   34 1
    33   11   35 1
    34   11   36 1
    35   12   37 1
    36   12   38 1
    37   15   19 1
    38   17   19 2
    39   18   19 2
