@<TRIPOS>MOLECULE
*****
   36    39     0     0     0
SMALL
NO_CHARGES

@<TRIPOS>ATOM
      1 C1          4.2325   -3.0513    6.2982 C.2       1 <0>         0.0000
      2 C2          3.9992   -3.1302    4.2178 C.2       1 <0>         0.0000
      3 C3          2.0393   -3.0073    1.6386 C.2       1 <0>         0.0000
      4 C4          3.8281   -1.5644    1.3376 C.2       1 <0>         0.0000
      5 C5         -0.2402   -0.1777    0.6031 C.3       1 <0>         0.0000
      6 C6         -0.4518   -1.2039   -0.5290 C.3       1 <0>         0.0000
      7 C7          4.8925   -4.6177    8.2224 C.3       1 <0>         0.0000
      8 C8          6.0093   -3.6321    8.0578 C.3       1 <0>         0.0000
      9 C9          0.5039   -0.9841    1.6756 C.3       1 <0>         0.0000
     10 C10         0.7655   -2.1674   -0.4486 C.3       1 <0>         0.0000
     11 C11         4.5832   -3.2141    7.7101 C.3       1 <0>         0.0000
     12 C12         1.5279   -1.8003    0.8525 C.3       1 <0>         0.0000
     13 C13         4.1805   -3.5755    2.7941 C.3       1 <0>         0.0000
     14 N1          4.6674   -3.7265    5.2637 N.2       1 <0>         0.0000
     15 N2          3.1978   -2.1506    4.5577 N.2       1 <0>         0.0000
     16 N3          2.7757   -1.0646    0.6105 N.am      1 <0>         0.0000
     17 N4          3.3829   -2.7932    1.8771 N.am      1 <0>         0.0000
     18 O1          1.3890   -3.9713    2.0029 O.2       1 <0>         0.0000
     19 O2          4.9439   -1.0975    1.4877 O.2       1 <0>         0.0000
     20 O3          3.3489   -2.0899    5.9639 O.3       1 <0>         0.0000
     21 H1          0.3814    0.6580    0.2556 H         1 <0>         0.0000
     22 H2         -1.1762    0.2524    0.9712 H         1 <0>         0.0000
     23 H3         -1.3779   -1.7595   -0.3511 H         1 <0>         0.0000
     24 H4         -0.5433   -0.7305   -1.5105 H         1 <0>         0.0000
     25 H5          4.8151   -5.4200    7.4963 H         1 <0>         0.0000
     26 H6          4.5459   -4.8547    9.2234 H         1 <0>         0.0000
     27 H7          6.4437   -3.1791    8.9434 H         1 <0>         0.0000
     28 H8          6.6853   -3.7689    7.2204 H         1 <0>         0.0000
     29 H9          0.9891   -0.3890    2.4535 H         1 <0>         0.0000
     30 H10        -0.1809   -1.6876    2.1609 H         1 <0>         0.0000
     31 H11         0.4415   -3.2095   -0.3975 H         1 <0>         0.0000
     32 H12         1.4399   -2.0687   -1.3021 H         1 <0>         0.0000
     33 H13         4.0769   -2.5278    8.3798 H         1 <0>         0.0000
     34 H14         5.2328   -3.4756    2.5182 H         1 <0>         0.0000
     35 H15         3.8918   -4.6260    2.7065 H         1 <0>         0.0000
     36 H16         2.7873   -0.0781    0.3850 H         1 <0>         0.0000
@<TRIPOS>BOND
     1    1   11 1
     2    1   14 2
     3    1   20 1
     4    2   13 1
     5    2   14 1
     6    2   15 2
     7    3   12 1
     8    3   17 am
     9    3   18 2
    10    4   16 am
    11    4   17 am
    12    4   19 2
    13    5    6 1
    14    5    9 1
    15    5   21 1
    16    5   22 1
    17    6   10 1
    18    6   23 1
    19    6   24 1
    20    7    8 1
    21    7   11 1
    22    7   25 1
    23    7   26 1
    24    8   11 1
    25    8   27 1
    26    8   28 1
    27    9   12 1
    28    9   29 1
    29    9   30 1
    30   10   12 1
    31   10   31 1
    32   10   32 1
    33   11   33 1
    34   12   16 1
    35   13   17 1
    36   13   34 1
    37   13   35 1
    38   15   20 1
    39   16   36 1
