@<TRIPOS>MOLECULE
*****
   55    56     0     0     0
SMALL
NO_CHARGES

@<TRIPOS>ATOM
      1 C1         -0.8474    2.9042   -0.9689 C.ar      1 <0>         0.0000
      2 C2          0.2460    3.4458   -0.2676 C.ar      1 <0>         0.0000
      3 C3         -1.1015    1.5420   -0.8854 C.ar      1 <0>         0.0000
      4 C4          1.0654    2.6393    0.5172 C.ar      1 <0>         0.0000
      5 C5         -0.2712    0.7061   -0.1154 C.ar      1 <0>         0.0000
      6 C6          0.8026    1.2645    0.5999 C.ar      1 <0>         0.0000
      7 C7         -0.4758   -0.7513   -0.0990 C.2       1 <0>         0.0000
      8 C8          0.7109   -1.5812    0.4481 C.3       1 <0>         0.0000
      9 C9          1.2230   -0.8438    1.7342 C.3       1 <0>         0.0000
     10 C10         0.1170   -0.7404    2.7973 C.3       1 <0>         0.0000
     11 C11         4.4330   -1.2865    3.9690 C.3       1 <0>         0.0000
     12 C12         1.5330    0.3638   -3.4447 C.3       1 <0>         0.0000
     13 C13        -0.7434   -6.1552    0.6711 C.3       1 <0>         0.0000
     14 C14         1.7946   -1.5608   -0.6685 C.3       1 <0>         0.0000
     15 C15         0.1850   -3.0139    0.6912 C.3       1 <0>         0.0000
     16 C16         2.5057   -1.4449    2.3313 C.3       1 <0>         0.0000
     17 C17         3.0871   -0.6924    3.5379 C.3       1 <0>         0.0000
     18 C18         1.3117   -2.0905   -2.0262 C.3       1 <0>         0.0000
     19 C19         1.2150   -4.0936    1.0443 C.3       1 <0>         0.0000
     20 O1         -1.4826   -1.2769   -0.5631 O.2       1 <0>         0.0000
     21 O2          3.6403   -1.2041   -3.0058 O.2       1 <0>         0.0000
     22 O3          1.8350   -1.9869   -4.6420 O.2       1 <0>         0.0000
     23 O4          0.8611   -5.3342   -1.2858 O.2       1 <0>         0.0000
     24 O5          1.8726   -6.6481    0.6639 O.2       1 <0>         0.0000
     25 O6          1.6330    0.5147    1.3656 O.3       1 <0>         0.0000
     26 S1          2.2215   -1.3132   -3.3927 S.o2      1 <0>         0.0000
     27 S2          0.9155   -5.6547    0.1529 S.o2      1 <0>         0.0000
     28 H1         -1.4815    3.5468   -1.5722 H         1 <0>         0.0000
     29 H2          0.4541    4.5107   -0.3311 H         1 <0>         0.0000
     30 H3         -1.9277    1.0843   -1.4214 H         1 <0>         0.0000
     31 H4          1.9043    3.0486    1.0720 H         1 <0>         0.0000
     32 H5          0.4057   -0.0148    3.5592 H         1 <0>         0.0000
     33 H6         -0.0325   -1.7056    3.2886 H         1 <0>         0.0000
     34 H7         -0.8413   -0.4235    2.3785 H         1 <0>         0.0000
     35 H8          4.3341   -2.3438    4.2415 H         1 <0>         0.0000
     36 H9          4.8380   -0.7560    4.8367 H         1 <0>         0.0000
     37 H10         5.1716   -1.2200    3.1625 H         1 <0>         0.0000
     38 H11         2.0657    0.8730   -4.2500 H         1 <0>         0.0000
     39 H12         0.4680    0.3023   -3.6718 H         1 <0>         0.0000
     40 H13         1.7057    0.8752   -2.4973 H         1 <0>         0.0000
     41 H14        -0.9476   -7.0905    0.1465 H         1 <0>         0.0000
     42 H15        -0.7432   -6.3188    1.7500 H         1 <0>         0.0000
     43 H16        -1.4652   -5.3927    0.3768 H         1 <0>         0.0000
     44 H17         2.6641   -2.1453   -0.3675 H         1 <0>         0.0000
     45 H18         2.1666   -0.5401   -0.7643 H         1 <0>         0.0000
     46 H19        -0.3197   -3.2936   -0.2351 H         1 <0>         0.0000
     47 H20        -0.6006   -2.9914    1.4497 H         1 <0>         0.0000
     48 H21         2.3034   -2.4755    2.6318 H         1 <0>         0.0000
     49 H22         3.2715   -1.4831    1.5513 H         1 <0>         0.0000
     50 H23         3.2122    0.3639    3.2825 H         1 <0>         0.0000
     51 H24         2.3897   -0.7349    4.3817 H         1 <0>         0.0000
     52 H25         1.4787   -3.1647   -2.1463 H         1 <0>         0.0000
     53 H26         0.2560   -1.8999   -2.2303 H         1 <0>         0.0000
     54 H27         2.2338   -3.8574    0.7316 H         1 <0>         0.0000
     55 H28         1.2434   -4.3518    2.1050 H         1 <0>         0.0000
@<TRIPOS>BOND
     1    1    2 ar
     2    1    3 ar
     3    1   28 1
     4    2    4 ar
     5    2   29 1
     6    3    5 ar
     7    3   30 1
     8    4    6 ar
     9    4   31 1
    10    5    6 ar
    11    5    7 1
    12    6   25 1
    13    7    8 1
    14    7   20 2
    15    8    9 1
    16    8   14 1
    17    8   15 1
    18    9   10 1
    19    9   16 1
    20    9   25 1
    21   10   32 1
    22   10   33 1
    23   10   34 1
    24   11   17 1
    25   11   35 1
    26   11   36 1
    27   11   37 1
    28   12   26 1
    29   12   38 1
    30   12   39 1
    31   12   40 1
    32   13   27 1
    33   13   41 1
    34   13   42 1
    35   13   43 1
    36   14   18 1
    37   14   44 1
    38   14   45 1
    39   15   19 1
    40   15   46 1
    41   15   47 1
    42   16   17 1
    43   16   48 1
    44   16   49 1
    45   17   50 1
    46   17   51 1
    47   18   26 1
    48   18   52 1
    49   18   53 1
    50   19   27 1
    51   19   54 1
    52   19   55 1
    53   21   26 2
    54   22   26 2
    55   23   27 2
    56   24   27 2
