@<TRIPOS>MOLECULE
*****
   35    37     0     0     0
SMALL
NO_CHARGES

@<TRIPOS>ATOM
      1 C1          0.1478   -2.0063    0.4892 C.ar      1 <0>         0.0000
      2 C2         -1.0108   -2.9828    2.7100 C.ar      1 <0>         0.0000
      3 C3         -1.5224    1.8033    3.1977 C.2       1 <0>         0.0000
      4 C4         -1.4300   -3.9986    3.6575 C.2       1 <0>         0.0000
      5 C5         -2.0185    2.7725    4.1326 C.2       1 <0>         0.0000
      6 C6         -2.1947    2.0913    2.0384 C.2       1 <0>         0.0000
      7 C7         -0.7432   -1.5796    2.5955 C.ar      1 <0>         0.0000
      8 C8         -0.6909   -3.7350    1.5649 C.ar      1 <0>         0.0000
      9 C9         -1.7983   -3.9551    5.1127 C.3       1 <0>         0.0000
     10 C10        -1.6332    2.9561    5.5694 C.3       1 <0>         0.0000
     11 C11        -2.1828    1.4954    0.6737 C.3       1 <0>         0.0000
     12 C12        -2.0858   -0.8538    4.5423 C.3       1 <0>         0.0000
     13 C13        -0.5079    0.7243    3.4556 C.3       1 <0>         0.0000
     14 N1         -0.1135   -1.1456    1.4785 N.ar      1 <0>         0.0000
     15 N2         -0.1393   -3.3099    0.4306 N.ar      1 <0>         0.0000
     16 N3         -1.3994   -5.1888    3.1038 N.2       1 <0>         0.0000
     17 N4         -2.9103    3.5685    3.5827 N.2       1 <0>         0.0000
     18 N5         -1.0793   -0.6340    3.5178 N.pl3     1 <0>         0.0000
     19 O1         -3.0267    3.1354    2.2480 O.3       1 <0>         0.0000
     20 O2         -0.9561   -5.0378    1.7711 O.3       1 <0>         0.0000
     21 H1          0.6473   -1.5846   -0.3814 H         1 <0>         0.0000
     22 H2         -2.7869   -3.5194    5.2767 H         1 <0>         0.0000
     23 H3         -1.8097   -4.9769    5.4966 H         1 <0>         0.0000
     24 H4         -1.0701   -3.3742    5.6844 H         1 <0>         0.0000
     25 H5         -0.5712    3.2073    5.6606 H         1 <0>         0.0000
     26 H6         -2.2197    3.7633    6.0125 H         1 <0>         0.0000
     27 H7         -1.8070    2.0416    6.1466 H         1 <0>         0.0000
     28 H8         -3.1621    1.0689    0.4307 H         1 <0>         0.0000
     29 H9         -1.9593    2.2608   -0.0765 H         1 <0>         0.0000
     30 H10        -1.4307    0.7072    0.6193 H         1 <0>         0.0000
     31 H11        -2.6703    0.0623    4.6590 H         1 <0>         0.0000
     32 H12        -1.6474   -1.1133    5.5129 H         1 <0>         0.0000
     33 H13        -2.7729   -1.6399    4.2333 H         1 <0>         0.0000
     34 H14         0.2609    0.7172    2.6864 H         1 <0>         0.0000
     35 H15        -0.0182    0.9193    4.4175 H         1 <0>         0.0000
@<TRIPOS>BOND
     1    1   14 ar
     2    1   15 ar
     3    1   21 1
     4    2    4 1
     5    2    7 ar
     6    2    8 ar
     7    3    5 1
     8    3    6 2
     9    3   13 1
    10    4    9 1
    11    4   16 2
    12    5   10 1
    13    5   17 2
    14    6   11 1
    15    6   19 1
    16    7   14 ar
    17    7   18 1
    18    8   15 ar
    19    8   20 1
    20    9   22 1
    21    9   23 1
    22    9   24 1
    23   10   25 1
    24   10   26 1
    25   10   27 1
    26   11   28 1
    27   11   29 1
    28   11   30 1
    29   12   18 1
    30   12   31 1
    31   12   32 1
    32   12   33 1
    33   13   18 1
    34   13   34 1
    35   13   35 1
    36   16   20 1
    37   17   19 1
