@<TRIPOS>MOLECULE
*****
   66    70     0     0     0
SMALL
NO_CHARGES

@<TRIPOS>ATOM
      1 C1         -4.3348   -2.2854   -2.4270 C.ar      1 <0>         0.0000
      2 C2         -5.7194   -8.4877    1.2350 C.ar      1 <0>         0.0000
      3 C3         -5.0747   -3.3215   -1.8638 C.ar      1 <0>         0.0000
      4 C4         -2.9357   -2.3177   -2.4200 C.ar      1 <0>         0.0000
      5 C5         -6.0126   -7.3282    0.5199 C.ar      1 <0>         0.0000
      6 C6         -3.0354   -4.4683   -1.2420 C.ar      1 <0>         0.0000
      7 C7         -4.4012   -8.9202    1.3555 C.ar      1 <0>         0.0000
      8 C8         -4.4396   -4.4288   -1.2581 C.ar      1 <0>         0.0000
      9 C9         -2.3235   -3.4204   -1.8235 C.ar      1 <0>         0.0000
     10 C10        -3.3980   -8.1771    0.6717 C.ar      1 <0>         0.0000
     11 C11        -4.9435   -6.6101   -0.0414 C.ar      1 <0>         0.0000
     12 C12        -2.7828  -10.5600    2.1313 C.2       1 <0>         0.0000
     13 C13        -0.1656   -7.5616    1.7819 C.3       1 <0>         0.0000
     14 C14         0.0199   -8.3769   -0.5975 C.3       1 <0>         0.0000
     15 C15        -0.3923   -3.6154   -4.5776 C.3       1 <0>         0.0000
     16 C16        -0.8118   -5.7436   -3.4567 C.3       1 <0>         0.0000
     17 C17         1.1192   -6.7692    1.5218 C.3       1 <0>         0.0000
     18 C18         1.2969   -7.5319   -0.6964 C.3       1 <0>         0.0000
     19 C19         0.2595   -4.4001   -5.7148 C.3       1 <0>         0.0000
     20 C20        -0.1412   -6.4481   -4.6330 C.3       1 <0>         0.0000
     21 C21        -1.9349  -10.0856    0.9571 C.3       1 <0>         0.0000
     22 C22        -0.9300   -7.8067    0.4686 C.3       1 <0>         0.0000
     23 C23        -2.2495  -10.9542   -0.2766 C.3       1 <0>         0.0000
     24 C24        -4.9630  -10.4562    3.2289 C.3       1 <0>         0.0000
     25 N1         -3.6758   -7.0367    0.0178 N.ar      1 <0>         0.0000
     26 N2         -4.0299   -9.9858    2.2087 N.am      1 <0>         0.0000
     27 N3         -2.1105   -8.6556    0.7000 N.pl3     1 <0>         0.0000
     28 N4         -0.2264   -4.3972   -3.3399 N.pl3     1 <0>         0.0000
     29 N5         -5.2472   -5.4137   -0.6974 N.pl3     1 <0>         0.0000
     30 O1         -2.3851  -11.4293    2.9042 O.2       1 <0>         0.0000
     31 O2          0.0493   -2.2484   -2.0356 O.2       1 <0>         0.0000
     32 O3         -0.1347   -4.4930   -0.8187 O.2       1 <0>         0.0000
     33 O4          1.9507   -7.4335    0.5669 O.3       1 <0>         0.0000
     34 O5         -0.2987   -5.7067   -5.8398 O.3       1 <0>         0.0000
     35 S1         -0.5402   -3.5793   -1.8913 S.o2      1 <0>         0.0000
     36 H1         -4.8536   -1.4412   -2.8726 H         1 <0>         0.0000
     37 H2         -6.5227   -9.0289    1.7230 H         1 <0>         0.0000
     38 H3         -6.1620   -3.2740   -1.8830 H         1 <0>         0.0000
     39 H4         -2.3418   -1.5110   -2.8353 H         1 <0>         0.0000
     40 H5         -7.0357   -6.9743    0.4339 H         1 <0>         0.0000
     41 H6         -2.5262   -5.2947   -0.7731 H         1 <0>         0.0000
     42 H7          0.0967   -8.5187    2.2475 H         1 <0>         0.0000
     43 H8         -0.8085   -7.0169    2.4826 H         1 <0>         0.0000
     44 H9         -0.4861   -8.4194   -1.5697 H         1 <0>         0.0000
     45 H10         0.3154   -9.3987   -0.3377 H         1 <0>         0.0000
     46 H11         0.1030   -2.6512   -4.4534 H         1 <0>         0.0000
     47 H12        -1.4575   -3.4513   -4.8006 H         1 <0>         0.0000
     48 H13        -1.8975   -5.6897   -3.6244 H         1 <0>         0.0000
     49 H14        -0.6256   -6.2934   -2.5349 H         1 <0>         0.0000
     50 H15         0.8804   -5.7580    1.1661 H         1 <0>         0.0000
     51 H16         1.7138   -6.6862    2.4353 H         1 <0>         0.0000
     52 H17         2.0133   -8.0043   -1.3746 H         1 <0>         0.0000
     53 H18         1.0705   -6.5258   -1.0703 H         1 <0>         0.0000
     54 H19         0.0845   -3.8961   -6.6684 H         1 <0>         0.0000
     55 H20         1.3427   -4.4679   -5.5372 H         1 <0>         0.0000
     56 H21         0.9268   -6.5935   -4.4132 H         1 <0>         0.0000
     57 H22        -0.6073   -7.4218   -4.8038 H         1 <0>         0.0000
     58 H23        -0.9048  -10.2557    1.2659 H         1 <0>         0.0000
     59 H24        -1.3088   -6.8495    0.1109 H         1 <0>         0.0000
     60 H25        -3.2836  -10.8024   -0.6008 H         1 <0>         0.0000
     61 H26        -2.1094  -12.0123   -0.0366 H         1 <0>         0.0000
     62 H27        -1.5887  -10.6895   -1.1054 H         1 <0>         0.0000
     63 H28        -5.8072  -10.9875    2.7753 H         1 <0>         0.0000
     64 H29        -5.3416   -9.6106    3.8112 H         1 <0>         0.0000
     65 H30        -4.4238  -11.1419    3.8805 H         1 <0>         0.0000
     66 H31        -6.2365   -5.2069   -0.7221 H         1 <0>         0.0000
@<TRIPOS>BOND
     1    1    3 ar
     2    1    4 ar
     3    1   36 1
     4    2    5 ar
     5    2    7 ar
     6    2   37 1
     7    3    8 ar
     8    3   38 1
     9    4    9 ar
    10    4   39 1
    11    5   11 ar
    12    5   40 1
    13    6    8 ar
    14    6    9 ar
    15    6   41 1
    16    7   10 ar
    17    7   26 1
    18    8   29 1
    19    9   35 1
    20   10   25 ar
    21   10   27 1
    22   11   25 ar
    23   11   29 1
    24   12   21 1
    25   12   26 am
    26   12   30 2
    27   13   17 1
    28   13   22 1
    29   13   42 1
    30   13   43 1
    31   14   18 1
    32   14   22 1
    33   14   44 1
    34   14   45 1
    35   15   19 1
    36   15   28 1
    37   15   46 1
    38   15   47 1
    39   16   20 1
    40   16   28 1
    41   16   48 1
    42   16   49 1
    43   17   33 1
    44   17   50 1
    45   17   51 1
    46   18   33 1
    47   18   52 1
    48   18   53 1
    49   19   34 1
    50   19   54 1
    51   19   55 1
    52   20   34 1
    53   20   56 1
    54   20   57 1
    55   21   23 1
    56   21   27 1
    57   21   58 1
    58   22   27 1
    59   22   59 1
    60   23   60 1
    61   23   61 1
    62   23   62 1
    63   24   26 1
    64   24   63 1
    65   24   64 1
    66   24   65 1
    67   28   35 1
    68   29   66 1
    69   31   35 2
    70   32   35 2
