@<TRIPOS>MOLECULE
*****
   35    37     0     0     0
SMALL
NO_CHARGES

@<TRIPOS>ATOM
      1 C1          0.8244   -2.0053    0.2573 C.ar      1 <0>         0.0000
      2 C2         -0.8139   -3.2367    1.9984 C.ar      1 <0>         0.0000
      3 C3         -0.4511    0.6381    4.5029 C.2       1 <0>         0.0000
      4 C4         -1.3845   -4.3525    2.7306 C.2       1 <0>         0.0000
      5 C5          0.6205   -0.0258    5.1936 C.2       1 <0>         0.0000
      6 C6         -0.9874    1.4691    5.4464 C.2       1 <0>         0.0000
      7 C7         -0.6570   -1.8134    2.0375 C.ar      1 <0>         0.0000
      8 C8         -0.1173   -3.8711    0.9525 C.ar      1 <0>         0.0000
      9 C9         -2.1457   -4.4540    4.0211 C.3       1 <0>         0.0000
     10 C10         1.5509   -1.0679    4.6533 C.3       1 <0>         0.0000
     11 C11        -2.1130    2.4463    5.4392 C.3       1 <0>         0.0000
     12 C12        -2.5229   -1.3437    3.5996 C.3       1 <0>         0.0000
     13 C13        -0.8614    0.4153    3.0777 C.3       1 <0>         0.0000
     14 N1          0.2213   -1.2481    1.1782 N.ar      1 <0>         0.0000
     15 N2          0.6855   -3.3187    0.0473 N.ar      1 <0>         0.0000
     16 N3         -1.0877   -5.4897    2.1454 N.2       1 <0>         0.0000
     17 N4          0.7168    0.3805    6.4399 N.2       1 <0>         0.0000
     18 N5         -1.3240   -0.9657    2.8719 N.pl3     1 <0>         0.0000
     19 O1         -0.3046    1.3373    6.6082 O.3       1 <0>         0.0000
     20 O2         -0.3060   -5.2026    1.0044 O.3       1 <0>         0.0000
     21 H1          1.5080   -1.4819   -0.4088 H         1 <0>         0.0000
     22 H2         -3.1716   -4.0898    3.9272 H         1 <0>         0.0000
     23 H3         -2.1835   -5.5041    4.3169 H         1 <0>         0.0000
     24 H4         -1.6533   -3.8855    4.8143 H         1 <0>         0.0000
     25 H5          1.9897   -0.7436    3.7049 H         1 <0>         0.0000
     26 H6          2.3503   -1.2692    5.3689 H         1 <0>         0.0000
     27 H7          1.0148   -2.0023    4.4566 H         1 <0>         0.0000
     28 H8         -2.8343    2.2122    6.2285 H         1 <0>         0.0000
     29 H9         -1.7471    3.4634    5.6133 H         1 <0>         0.0000
     30 H10        -2.6296    2.4277    4.4772 H         1 <0>         0.0000
     31 H11        -3.1769   -0.4692    3.6670 H         1 <0>         0.0000
     32 H12        -2.3144   -1.6845    4.6189 H         1 <0>         0.0000
     33 H13        -3.0601   -2.1200    3.0558 H         1 <0>         0.0000
     34 H14        -1.6655    1.1057    2.7977 H         1 <0>         0.0000
     35 H15        -0.0323    0.5855    2.3932 H         1 <0>         0.0000
@<TRIPOS>BOND
     1    1   14 ar
     2    1   15 ar
     3    1   21 1
     4    2    4 1
     5    2    7 ar
     6    2    8 ar
     7    3    5 1
     8    3    6 2
     9    3   13 1
    10    4    9 1
    11    4   16 2
    12    5   10 1
    13    5   17 2
    14    6   11 1
    15    6   19 1
    16    7   14 ar
    17    7   18 1
    18    8   15 ar
    19    8   20 1
    20    9   22 1
    21    9   23 1
    22    9   24 1
    23   10   25 1
    24   10   26 1
    25   10   27 1
    26   11   28 1
    27   11   29 1
    28   11   30 1
    29   12   18 1
    30   12   31 1
    31   12   32 1
    32   12   33 1
    33   13   18 1
    34   13   34 1
    35   13   35 1
    36   16   20 1
    37   17   19 1
