@<TRIPOS>MOLECULE
*****
   18    18     0     0     0
SMALL
NO_CHARGES

@<TRIPOS>ATOM
      1 C1          1.4573    0.6846    1.6423 C.2       1 <0>         0.0000
      2 C2          0.1513    0.4524    1.1145 C.2       1 <0>         0.0000
      3 C3          1.5253    0.0558    2.8725 C.2       1 <0>         0.0000
      4 C4         -0.5425   -0.3066    2.0414 C.2       1 <0>         0.0000
      5 C5         -1.9411   -0.8471    2.0078 C.3       1 <0>         0.0000
      6 C6         -1.9654   -2.3120    1.5450 C.3       1 <0>         0.0000
      7 N1          0.3028   -0.5332    3.1104 N.pl3     1 <0>         0.0000
      8 N2         -2.7685   -0.0655    1.0921 N.3       1 <0>         0.0000
      9 F1         -3.2463   -2.7758    1.4998 F         1 <0>         0.0000
     10 F2         -1.4214   -2.5119    0.3364 F         1 <0>         0.0000
     11 F3         -1.2970   -3.0956    2.4364 F         1 <0>         0.0000
     12 H1          2.2549    1.2484    1.1762 H         1 <0>         0.0000
     13 H2         -0.2430    0.7816    0.1628 H         1 <0>         0.0000
     14 H3          2.3296   -0.0143    3.5918 H         1 <0>         0.0000
     15 H4         -2.3328   -0.8891    3.0398 H         1 <0>         0.0000
     16 H5          0.0855   -1.1208    3.9034 H         1 <0>         0.0000
     17 H6         -2.6978    0.9188    1.3372 H         1 <0>         0.0000
     18 H7         -3.7445   -0.3427    1.1698 H         1 <0>         0.0000
@<TRIPOS>BOND
     1    1    2 1
     2    1    3 2
     3    1   12 1
     4    2    4 2
     5    2   13 1
     6    3    7 1
     7    3   14 1
     8    4    5 1
     9    4    7 1
    10    5    6 1
    11    5    8 1
    12    5   15 1
    13    6    9 1
    14    6   10 1
    15    6   11 1
    16    7   16 1
    17    8   17 1
    18    8   18 1
