@<TRIPOS>MOLECULE
*****
   15    15     0     0     0
SMALL
NO_CHARGES

@<TRIPOS>ATOM
      1 C1          0.1231   -0.6762    1.1610 C.ar      1 <0>         0.0000
      2 C2          1.2240   -0.0572    1.7624 C.ar      1 <0>         0.0000
      3 C3          1.5849   -0.4646    3.0576 C.ar      1 <0>         0.0000
      4 C4         -0.5615   -1.6621    1.8690 C.ar      1 <0>         0.0000
      5 C5          0.8102   -1.4697    3.6609 C.ar      1 <0>         0.0000
      6 C6          1.9347    1.0102    0.9510 C.2       1 <0>         0.0000
      7 N1         -0.2238   -2.0496    3.0937 N.ar      1 <0>         0.0000
      8 O1          1.5544    1.2988   -0.1624 O.2       1 <0>         0.0000
      9 O2          2.6547    0.1119    3.6833 O.3       1 <0>         0.0000
     10 O3          2.9976    1.6257    1.5033 O.3       1 <0>         0.0000
     11 Cl1        -1.9402   -2.4512    1.1399 Cl        1 <0>         0.0000
     12 Cl2         1.2554   -1.9863    5.2877 Cl        1 <0>         0.0000
     13 H1         -0.1709   -0.3757    0.1624 H         1 <0>         0.0000
     14 H2          2.7691   -0.2754    4.5725 H         1 <0>         0.0000
     15 H3          3.1810    1.2853    2.4014 H         1 <0>         0.0000
@<TRIPOS>BOND
     1    1    2 ar
     2    1    4 ar
     3    1   13 1
     4    2    3 ar
     5    2    6 1
     6    3    5 ar
     7    3    9 1
     8    4    7 ar
     9    4   11 1
    10    5    7 ar
    11    5   12 1
    12    6    8 2
    13    6   10 1
    14    9   14 1
    15   10   15 1
