@<TRIPOS>MOLECULE
*****
   37    39     0     0     0
SMALL
NO_CHARGES

@<TRIPOS>ATOM
      1 C1         -2.4244   -1.4991    0.8575 C.1       1 <0>         0.0000
      2 C2          0.8330    4.2933    0.4662 C.ar      1 <0>         0.0000
      3 C3         -0.1336    5.1496    1.0079 C.ar      1 <0>         0.0000
      4 C4          0.6794    2.9174    0.6062 C.ar      1 <0>         0.0000
      5 C5         -1.2433    4.6400    1.6877 C.ar      1 <0>         0.0000
      6 C6         -1.1074   -2.0296    0.9660 C.2       1 <0>         0.0000
      7 C7         -0.4257    2.3740    1.2850 C.ar      1 <0>         0.0000
      8 C8         -0.8486   -3.4473    0.9957 C.2       1 <0>         0.0000
      9 C9         -1.3940    3.2541    1.8330 C.ar      1 <0>         0.0000
     10 C10         0.4903   -3.7343    1.0477 C.2       1 <0>         0.0000
     11 C11         0.0536   -1.2535    1.0050 C.2       1 <0>         0.0000
     12 C12        -0.5973    0.9326    1.4229 C.2       1 <0>         0.0000
     13 C13        -1.9062   -4.5214    0.9559 C.3       1 <0>         0.0000
     14 C14         1.0769   -5.1179    1.1102 C.3       1 <0>         0.0000
     15 C15        -1.3290   -5.8828    1.3760 C.3       1 <0>         0.0000
     16 C16         0.0191   -6.1560    0.6941 C.3       1 <0>         0.0000
     17 C17        -3.4904    3.4973    2.9748 C.3       1 <0>         0.0000
     18 N1         -3.5198   -1.1028    0.7708 N.1       1 <0>         0.0000
     19 N2          0.2710    0.1007    0.9438 N.2       1 <0>         0.0000
     20 O1         -2.4372    2.6690    2.4864 O.3       1 <0>         0.0000
     21 S1          1.4646   -2.2868    1.0435 S.3       1 <0>         0.0000
     22 H1          1.6913    4.6997   -0.0608 H         1 <0>         0.0000
     23 H2         -0.0272    6.2263    0.9025 H         1 <0>         0.0000
     24 H3          1.4068    2.2259    0.1926 H         1 <0>         0.0000
     25 H4         -1.9765    5.3241    2.0986 H         1 <0>         0.0000
     26 H5         -1.4875    0.5979    1.9581 H         1 <0>         0.0000
     27 H6         -2.7461   -4.2442    1.6023 H         1 <0>         0.0000
     28 H7         -2.3163   -4.5843   -0.0610 H         1 <0>         0.0000
     29 H8          1.9583   -5.1945    0.4635 H         1 <0>         0.0000
     30 H9          1.4223   -5.3278    2.1318 H         1 <0>         0.0000
     31 H10        -1.1905   -5.8978    2.4647 H         1 <0>         0.0000
     32 H11        -2.0444   -6.6762    1.1354 H         1 <0>         0.0000
     33 H12        -0.1121   -6.1207   -0.3946 H         1 <0>         0.0000
     34 H13         0.3773   -7.1609    0.9419 H         1 <0>         0.0000
     35 H14        -4.2241    2.8157    3.4056 H         1 <0>         0.0000
     36 H15        -3.9549    4.0667    2.1616 H         1 <0>         0.0000
     37 H16        -3.1293    4.1841    3.7495 H         1 <0>         0.0000
@<TRIPOS>BOND
     1    1    6 1
     2    1   18 3
     3    2    3 ar
     4    2    4 ar
     5    2   22 1
     6    3    5 ar
     7    3   23 1
     8    4    7 ar
     9    4   24 1
    10    5    9 ar
    11    5   25 1
    12    6    8 1
    13    6   11 2
    14    7    9 ar
    15    7   12 1
    16    8   10 2
    17    8   13 1
    18    9   20 1
    19   10   14 1
    20   10   21 1
    21   11   19 1
    22   11   21 1
    23   12   19 2
    24   12   26 1
    25   13   15 1
    26   13   27 1
    27   13   28 1
    28   14   16 1
    29   14   29 1
    30   14   30 1
    31   15   16 1
    32   15   31 1
    33   15   32 1
    34   16   33 1
    35   16   34 1
    36   17   20 1
    37   17   35 1
    38   17   36 1
    39   17   37 1
