@<TRIPOS>MOLECULE
*****
   29    30     0     0     0
SMALL
NO_CHARGES

@<TRIPOS>ATOM
      1 C1          1.8817   -1.2586   -0.0231 C.ar      1 <0>         0.0000
      2 C2          0.8123   -0.6254    0.6256 C.ar      1 <0>         0.0000
      3 C3          2.8745   -1.8900    0.7311 C.ar      1 <0>         0.0000
      4 C4          0.7358   -0.6233    2.0161 C.ar      1 <0>         0.0000
      5 C5          2.7971   -1.8887    2.1253 C.ar      1 <0>         0.0000
      6 C6         -1.6162   -1.3204    7.7053 C.ar      1 <0>         0.0000
      7 C7         -0.2661   -3.2944    7.2407 C.ar      1 <0>         0.0000
      8 C8         -2.6927   -2.1377    8.0562 C.ar      1 <0>         0.0000
      9 C9         -1.3389   -4.1136    7.5908 C.ar      1 <0>         0.0000
     10 C10         1.7292   -1.2569    2.7889 C.ar      1 <0>         0.0000
     11 C11        -0.4177   -1.9066    7.2943 C.ar      1 <0>         0.0000
     12 C12        -2.5434   -3.5255    7.9915 C.ar      1 <0>         0.0000
     13 C13         1.7019   -1.2907    4.2539 C.2       1 <0>         0.0000
     14 C14         0.7843   -0.7343    5.0587 C.2       1 <0>         0.0000
     15 O1          0.6983    0.4839    7.3899 O.2       1 <0>         0.0000
     16 O2          2.2057   -1.5805    7.1185 O.2       1 <0>         0.0000
     17 S1          0.9614   -0.8497    6.8270 S.o2      1 <0>         0.0000
     18 Cl1        -3.8916   -4.5533    8.4312 Cl        1 <0>         0.0000
     19 H1          1.9381   -1.2570   -1.1083 H         1 <0>         0.0000
     20 H2          0.0395   -0.1329    0.0415 H         1 <0>         0.0000
     21 H3          3.7073   -2.3814    0.2355 H         1 <0>         0.0000
     22 H4         -0.0990   -0.1265    2.5021 H         1 <0>         0.0000
     23 H5          3.5716   -2.3785    2.7108 H         1 <0>         0.0000
     24 H6         -1.6950   -0.2394    7.7677 H         1 <0>         0.0000
     25 H7          0.6850   -3.7259    6.9443 H         1 <0>         0.0000
     26 H8         -3.6325   -1.7051    8.3838 H         1 <0>         0.0000
     27 H9         -1.2434   -5.1942    7.5620 H         1 <0>         0.0000
     28 H10         2.5220   -1.8178    4.7402 H         1 <0>         0.0000
     29 H11        -0.0817   -0.1602    4.7448 H         1 <0>         0.0000
@<TRIPOS>BOND
     1    1    3 ar
     2    1    2 ar
     3    1   19 1
     4    2    4 ar
     5    2   20 1
     6    3    5 ar
     7    3   21 1
     8    4   10 ar
     9    4   22 1
    10    5   10 ar
    11    5   23 1
    12    6    8 ar
    13    6   11 ar
    14    6   24 1
    15    7    9 ar
    16    7   11 ar
    17    7   25 1
    18    8   12 ar
    19    8   26 1
    20    9   12 ar
    21    9   27 1
    22   10   13 1
    23   11   17 1
    24   12   18 1
    25   13   14 2
    26   13   28 1
    27   14   17 1
    28   14   29 1
    29   15   17 2
    30   16   17 2
