@<TRIPOS>MOLECULE
*****
   64    68     0     0     0
SMALL
NO_CHARGES

@<TRIPOS>ATOM
      1 C1         -7.4004   -2.2811    9.7077 C.ar      1 <0>         0.0000
      2 C2         -7.4297   -3.6155    9.2290 C.ar      1 <0>         0.0000
      3 C3          5.4028    3.3118    0.0276 C.ar      1 <0>         0.0000
      4 C4          6.1531    2.8344    1.1193 C.ar      1 <0>         0.0000
      5 C5         -6.4949   -1.3772    9.1854 C.ar      1 <0>         0.0000
      6 C6         -6.5512   -4.0168    8.2401 C.ar      1 <0>         0.0000
      7 C7          4.2343    2.6552   -0.3704 C.ar      1 <0>         0.0000
      8 C8          1.5289    0.5759   -0.6000 C.ar      1 <0>         0.0000
      9 C9          5.7594    1.6954    1.8292 C.ar      1 <0>         0.0000
     10 C10         0.5580   -0.3923   -0.3587 C.ar      1 <0>         0.0000
     11 C11        -4.6310   -0.8599    7.6180 C.ar      1 <0>         0.0000
     12 C12        -4.6980   -3.4923    6.6632 C.ar      1 <0>         0.0000
     13 C13         1.9013   -1.3718    1.4403 C.ar      1 <0>         0.0000
     14 C14        -5.5812   -1.7614    8.1670 C.ar      1 <0>         0.0000
     15 C15        -5.6089   -3.1093    7.6863 C.ar      1 <0>         0.0000
     16 C16         3.8162    1.5126    0.3228 C.ar      1 <0>         0.0000
     17 C17         2.6801    0.6223    0.2057 C.ar      1 <0>         0.0000
     18 C18         4.5950    1.0317    1.4240 C.ar      1 <0>         0.0000
     19 C19         2.8355   -0.3590    1.2188 C.ar      1 <0>         0.0000
     20 C20         0.7329   -1.3411    0.6792 C.ar      1 <0>         0.0000
     21 C21        -3.7453   -1.2375    6.6289 C.ar      1 <0>         0.0000
     22 C22        -3.7958   -2.5911    6.1307 C.ar      1 <0>         0.0000
     23 C23         2.3005   -1.5036    4.5653 C.2       1 <0>         0.0000
     24 C24        -1.5196   -0.6052    5.8416 C.3       1 <0>         0.0000
     25 C25         3.5134   -0.5319    4.3808 C.3       1 <0>         0.0000
     26 C26        -1.6081   -3.4285    2.5528 C.3       1 <0>         0.0000
     27 C27        -1.4849   -4.2524    3.8480 C.3       1 <0>         0.0000
     28 C28         4.3974   -0.8273    3.1549 C.3       1 <0>         0.0000
     29 C29        -0.2268   -2.9495    2.1418 C.3       1 <0>         0.0000
     30 C30        -2.7366   -4.2282    4.7117 C.3       1 <0>         0.0000
     31 N1          3.9990   -0.1120    1.9381 N.pl3     1 <0>         0.0000
     32 O1          1.2526   -1.0010    5.0499 O.co2     1 <0>         0.0000
     33 O2          2.4996   -2.7068    4.2174 O.co2     1 <0>         0.0000
     34 O3         -2.9173   -0.2894    6.1215 O.3       1 <0>         0.0000
     35 O4         -0.3160   -2.1932    0.9182 O.3       1 <0>         0.0000
     36 O5         -2.9283   -2.8704    5.1259 O.3       1 <0>         0.0000
     37 H1         -8.0931   -1.9718   10.4870 H         1 <0>         0.0000
     38 H2         -8.1450   -4.3223    9.6431 H         1 <0>         0.0000
     39 H3          5.7335    4.2012   -0.5039 H         1 <0>         0.0000
     40 H4          7.0548    3.3623    1.4221 H         1 <0>         0.0000
     41 H5         -6.4700   -0.3525    9.5510 H         1 <0>         0.0000
     42 H6         -6.5721   -5.0411    7.8726 H         1 <0>         0.0000
     43 H7          3.6516    3.0313   -1.2088 H         1 <0>         0.0000
     44 H8          1.3747    1.3106   -1.3876 H         1 <0>         0.0000
     45 H9          6.3431    1.3459    2.6759 H         1 <0>         0.0000
     46 H10        -0.3642   -0.4189   -0.9323 H         1 <0>         0.0000
     47 H11        -4.5790    0.1645    7.9775 H         1 <0>         0.0000
     48 H12        -4.7419   -4.5076    6.2830 H         1 <0>         0.0000
     49 H13         2.0663   -2.0976    2.2270 H         1 <0>         0.0000
     50 H14        -0.9754    0.3291    5.9682 H         1 <0>         0.0000
     51 H15        -1.3942   -0.9656    4.8246 H         1 <0>         0.0000
     52 H16        -1.1347   -1.3491    6.5401 H         1 <0>         0.0000
     53 H17         4.1331   -0.6513    5.2794 H         1 <0>         0.0000
     54 H18         3.1638    0.5044    4.3644 H         1 <0>         0.0000
     55 H19        -2.0763   -4.0178    1.7545 H         1 <0>         0.0000
     56 H20        -2.2397   -2.5516    2.7261 H         1 <0>         0.0000
     57 H21        -0.6546   -3.8661    4.4499 H         1 <0>         0.0000
     58 H22        -1.2453   -5.2975    3.6154 H         1 <0>         0.0000
     59 H23         4.3587   -1.9042    2.9626 H         1 <0>         0.0000
     60 H24         5.4413   -0.5621    3.3420 H         1 <0>         0.0000
     61 H25         0.1798   -2.3274    2.9431 H         1 <0>         0.0000
     62 H26         0.4631   -3.7920    1.9993 H         1 <0>         0.0000
     63 H27        -2.6062   -4.8642    5.5969 H         1 <0>         0.0000
     64 H28        -3.6255   -4.5721    4.1624 H         1 <0>         0.0000
@<TRIPOS>BOND
     1    1    2 ar
     2    1    5 ar
     3    1   37 1
     4    2    6 ar
     5    2   38 1
     6    3    4 ar
     7    3    7 ar
     8    3   39 1
     9    4    9 ar
    10    4   40 1
    11    5   14 ar
    12    5   41 1
    13    6   15 ar
    14    6   42 1
    15    7   16 ar
    16    7   43 1
    17    8   10 ar
    18    8   17 ar
    19    8   44 1
    20    9   18 ar
    21    9   45 1
    22   10   20 ar
    23   10   46 1
    24   11   14 ar
    25   11   21 ar
    26   11   47 1
    27   12   15 ar
    28   12   22 ar
    29   12   48 1
    30   13   19 ar
    31   13   20 ar
    32   13   49 1
    33   14   15 ar
    34   16   17 1
    35   16   18 ar
    36   17   19 ar
    37   18   31 1
    38   19   31 1
    39   20   35 1
    40   21   22 ar
    41   21   34 1
    42   22   36 1
    43   23   25 1
    44   23   32 1
    45   23   33 2
    46   24   34 1
    47   24   50 1
    48   24   51 1
    49   24   52 1
    50   25   28 1
    51   25   53 1
    52   25   54 1
    53   26   27 1
    54   26   29 1
    55   26   55 1
    56   26   56 1
    57   27   30 1
    58   27   57 1
    59   27   58 1
    60   28   31 1
    61   28   59 1
    62   28   60 1
    63   29   35 1
    64   29   61 1
    65   29   62 1
    66   30   36 1
    67   30   63 1
    68   30   64 1
