@<TRIPOS>MOLECULE
*****
   58    61     0     0     0
SMALL
NO_CHARGES

@<TRIPOS>ATOM
      1 C1          3.2331  -11.1958    0.6668 C.ar      1 <0>         0.0000
      2 C2          2.9853  -11.0526   -1.7363 C.ar      1 <0>         0.0000
      3 C3          3.2271   -7.3910   -3.0085 C.ar      1 <0>         0.0000
      4 C4          1.8619  -11.0203    0.8244 C.ar      1 <0>         0.0000
      5 C5          1.6142  -10.8736   -1.5828 C.ar      1 <0>         0.0000
      6 C6          2.0209   -7.3341   -2.3089 C.ar      1 <0>         0.0000
      7 C7          5.7257   -8.1248   -0.4739 C.2       1 <0>         0.0000
      8 C8          3.1473   -7.8154   -0.1968 C.ar      1 <0>         0.0000
      9 C9          6.5065   -8.0726   -1.5989 C.2       1 <0>         0.0000
     10 C10         7.1768  -11.4320   -1.7730 C.2       1 <0>         0.0000
     11 C11         4.3691   -7.8620   -0.8825 C.ar      1 <0>         0.0000
     12 C12         3.8138  -11.1992   -0.6121 C.ar      1 <0>         0.0000
     13 C13         4.3928   -7.6643   -2.2909 C.ar      1 <0>         0.0000
     14 C14         1.0470  -10.8342   -0.3026 C.ar      1 <0>         0.0000
     15 C15         1.9811   -7.5655   -0.9158 C.ar      1 <0>         0.0000
     16 C16         7.3779  -11.5641   -0.4337 C.2       1 <0>         0.0000
     17 C17         5.2572  -11.3320   -0.7368 C.2       1 <0>         0.0000
     18 C18         6.8491   -8.6187   -4.7976 C.2       1 <0>         0.0000
     19 C19         8.6868  -13.1091    1.0724 C.3       1 <0>         0.0000
     20 C20         7.1772   -6.2359   -3.9762 C.3       1 <0>         0.0000
     21 C21         8.6515  -11.7646    0.3269 C.3       1 <0>         0.0000
     22 C22        -1.3895   -8.4810    0.0896 C.3       1 <0>         0.0000
     23 C23        -0.7995   -9.7148    0.7739 C.3       1 <0>         0.0000
     24 C24        -0.4110   -7.8432   -0.8902 C.3       1 <0>         0.0000
     25 C25         6.2241   -7.4340   -4.0312 C.3       1 <0>         0.0000
     26 N1          6.1417  -11.4998    0.2096 N.2       1 <0>         0.0000
     27 N2          5.7153   -7.8214   -2.7221 N.pl3     1 <0>         0.0000
     28 O1          7.6063   -8.4584   -5.7284 O.2       1 <0>         0.0000
     29 O2          5.8170  -11.2814   -1.9890 O.3       1 <0>         0.0000
     30 O3          6.4609   -9.8536   -4.4125 O.3       1 <0>         0.0000
     31 O4         -0.3097  -10.6396   -0.2189 O.3       1 <0>         0.0000
     32 O5          0.8072   -7.5630   -0.1926 O.3       1 <0>         0.0000
     33 H1          3.8730  -11.3280    1.5335 H         1 <0>         0.0000
     34 H2          3.4169  -11.0576   -2.7319 H         1 <0>         0.0000
     35 H3          3.2330   -7.2275   -4.0826 H         1 <0>         0.0000
     36 H4          1.4281  -11.0315    1.8194 H         1 <0>         0.0000
     37 H5          0.9706  -10.7368   -2.4461 H         1 <0>         0.0000
     38 H6          1.1098   -7.1102   -2.8519 H         1 <0>         0.0000
     39 H7          6.0701   -8.3632    0.5232 H         1 <0>         0.0000
     40 H8          3.0852   -8.0033    0.8701 H         1 <0>         0.0000
     41 H9          7.5720   -8.2245   -1.7056 H         1 <0>         0.0000
     42 H10         7.8040  -11.4239   -2.6512 H         1 <0>         0.0000
     43 H11         7.8416  -13.1866    1.7620 H         1 <0>         0.0000
     44 H12         9.6132  -13.2093    1.6474 H         1 <0>         0.0000
     45 H13         8.6268  -13.9462    0.3692 H         1 <0>         0.0000
     46 H14         8.0830   -6.4780   -3.4144 H         1 <0>         0.0000
     47 H15         7.4729   -5.9498   -4.9867 H         1 <0>         0.0000
     48 H16         6.6780   -5.3949   -3.4882 H         1 <0>         0.0000
     49 H17         9.4971  -11.6933   -0.3656 H         1 <0>         0.0000
     50 H18         8.7608  -10.9468    1.0496 H         1 <0>         0.0000
     51 H19        -2.2960   -8.7520   -0.4634 H         1 <0>         0.0000
     52 H20        -1.6789   -7.7622    0.8657 H         1 <0>         0.0000
     53 H21         0.0107   -9.4114    1.4386 H         1 <0>         0.0000
     54 H22        -1.5623  -10.2349    1.3614 H         1 <0>         0.0000
     55 H23        -0.8280   -6.9179   -1.3090 H         1 <0>         0.0000
     56 H24        -0.2173   -8.5387   -1.7121 H         1 <0>         0.0000
     57 H25         5.3539   -7.1513   -4.6312 H         1 <0>         0.0000
     58 H26         5.9090   -9.8017   -3.6052 H         1 <0>         0.0000
@<TRIPOS>BOND
     1    1    4 ar
     2    1   12 ar
     3    1   33 1
     4    2    5 ar
     5    2   12 ar
     6    2   34 1
     7    3    6 ar
     8    3   13 ar
     9    3   35 1
    10    4   14 ar
    11    4   36 1
    12    5   14 ar
    13    5   37 1
    14    6   15 ar
    15    6   38 1
    16    7    9 2
    17    7   11 1
    18    7   39 1
    19    8   11 ar
    20    8   15 ar
    21    8   40 1
    22    9   27 1
    23    9   41 1
    24   10   16 2
    25   10   29 1
    26   10   42 1
    27   11   13 ar
    28   12   17 1
    29   13   27 1
    30   14   31 1
    31   15   32 1
    32   16   21 1
    33   16   26 1
    34   17   26 2
    35   17   29 1
    36   18   25 1
    37   18   28 2
    38   18   30 1
    39   19   21 1
    40   19   43 1
    41   19   44 1
    42   19   45 1
    43   20   25 1
    44   20   46 1
    45   20   47 1
    46   20   48 1
    47   21   49 1
    48   21   50 1
    49   22   23 1
    50   22   24 1
    51   22   51 1
    52   22   52 1
    53   23   31 1
    54   23   53 1
    55   23   54 1
    56   24   32 1
    57   24   55 1
    58   24   56 1
    59   25   27 1
    60   25   57 1
    61   30   58 1
