@<TRIPOS>MOLECULE
*****
   21    22     0     0     0
SMALL
NO_CHARGES

@<TRIPOS>ATOM
      1 C1         -0.9927    2.5135    0.3617 C.ar      1 <0>         0.0000
      2 C2         -1.3905    3.6964    0.9922 C.ar      1 <0>         0.0000
      3 C3         -0.4985    1.5197    2.5095 C.ar      1 <0>         0.0000
      4 C4         -0.5466    1.4180    1.1114 C.ar      1 <0>         0.0000
      5 C5         -1.3462    3.7804    2.3788 C.ar      1 <0>         0.0000
      6 C6         -0.9017    2.6938    3.1324 C.ar      1 <0>         0.0000
      7 C7         -1.2994   -0.8986    0.0971 C.3       1 <0>         0.0000
      8 C8         -0.5695   -1.0890   -1.2540 C.3       1 <0>         0.0000
      9 C9         -0.1699    0.1214    0.4405 C.3       1 <0>         0.0000
     10 N1          0.1422    0.1971   -1.0111 N.3       1 <0>         0.0000
     11 F1         -1.7248    4.9145    3.0101 F         1 <0>         0.0000
     12 F2         -0.8578    2.7978    4.4799 F         1 <0>         0.0000
     13 H1         -1.0134    2.4287   -0.7198 H         1 <0>         0.0000
     14 H2         -1.7334    4.5572    0.4255 H         1 <0>         0.0000
     15 H3         -0.1506    0.6950    3.1266 H         1 <0>         0.0000
     16 H4         -2.2676   -0.4054   -0.0119 H         1 <0>         0.0000
     17 H5         -1.3972   -1.7674    0.7507 H         1 <0>         0.0000
     18 H6          0.0862   -1.9711   -1.2473 H         1 <0>         0.0000
     19 H7         -1.1767   -1.1007   -2.1648 H         1 <0>         0.0000
     20 H8          0.6180   -0.3779    1.0248 H         1 <0>         0.0000
     21 H9          1.1356    0.2011   -1.2352 H         1 <0>         0.0000
@<TRIPOS>BOND
     1    1    2 ar
     2    1    4 ar
     3    1   13 1
     4    2    5 ar
     5    2   14 1
     6    3    4 ar
     7    3    6 ar
     8    3   15 1
     9    4    9 1
    10    5    6 ar
    11    5   11 1
    12    6   12 1
    13    7    8 1
    14    7    9 1
    15    7   16 1
    16    7   17 1
    17    8   10 1
    18    8   18 1
    19    8   19 1
    20    9   10 1
    21    9   20 1
    22   10   21 1
