@<TRIPOS>MOLECULE
*****
   43    43     0     0     0
SMALL
NO_CHARGES

@<TRIPOS>ATOM
      1 C1         -1.3876   -5.2546    3.5065 C.2       1 <0>         0.0000
      2 C2         -0.2930   -4.3837    3.3260 C.2       1 <0>         0.0000
      3 C3         -2.3829   -4.8338    2.6314 C.2       1 <0>         0.0000
      4 C4         -0.6305   -3.4477    2.3412 C.2       1 <0>         0.0000
      5 C5          0.1987   -2.3550    1.8311 C.2       1 <0>         0.0000
      6 C6         -2.7541   -3.0757    0.9284 C.3       1 <0>         0.0000
      7 C7         -1.0549    1.7651   -1.0176 C.3       1 <0>         0.0000
      8 C8         -1.7006   -0.5131   -1.6266 C.3       1 <0>         0.0000
      9 C9          2.1749    1.1865    1.4858 C.3       1 <0>         0.0000
     10 C10        -0.1603    1.2549    2.2321 C.3       1 <0>         0.0000
     11 C11         2.0571    0.3442   -1.8450 C.3       1 <0>         0.0000
     12 C12         2.3746   -1.8912   -0.8517 C.3       1 <0>         0.0000
     13 N1         -0.2962   -1.6959    0.7598 N.2       1 <0>         0.0000
     14 N2         -1.9341   -3.7496    1.9268 N.pl3     1 <0>         0.0000
     15 N3         -0.9453    0.3421   -0.7113 N.pl3     1 <0>         0.0000
     16 N4          0.7754    0.9124    1.1524 N.pl3     1 <0>         0.0000
     17 N5          1.5751   -0.6662   -0.9077 N.pl3     1 <0>         0.0000
     18 P1          0.3270   -0.3438    0.1444 P.3       1 <0>         0.0000
     19 S1          1.6854   -2.0182    2.5987 S.2       1 <0>         0.0000
     20 H1         -1.4574   -6.0907    4.1903 H         1 <0>         0.0000
     21 H2          0.6596   -4.3990    3.8360 H         1 <0>         0.0000
     22 H3         -3.3785   -5.2236    2.4625 H         1 <0>         0.0000
     23 H4         -2.7668   -1.9996    1.0987 H         1 <0>         0.0000
     24 H5         -2.3701   -3.2560   -0.0778 H         1 <0>         0.0000
     25 H6         -3.7694   -3.4729    1.0034 H         1 <0>         0.0000
     26 H7         -0.4116    2.3456   -0.3571 H         1 <0>         0.0000
     27 H8         -2.0919    2.0935   -0.8725 H         1 <0>         0.0000
     28 H9         -0.7780    1.9789   -2.0612 H         1 <0>         0.0000
     29 H10        -1.5868   -1.5565   -1.3386 H         1 <0>         0.0000
     30 H11        -1.3572   -0.3891   -2.6644 H         1 <0>         0.0000
     31 H12        -2.7656   -0.2550   -1.5817 H         1 <0>         0.0000
     32 H13         2.8366    0.7590    0.7338 H         1 <0>         0.0000
     33 H14         2.4402    0.7442    2.4511 H         1 <0>         0.0000
     34 H15         2.3285    2.2729    1.5157 H         1 <0>         0.0000
     35 H16        -1.1882    1.0667    1.9160 H         1 <0>         0.0000
     36 H17        -0.0630    2.3203    2.4711 H         1 <0>         0.0000
     37 H18         0.0484    0.6618    3.1310 H         1 <0>         0.0000
     38 H19         1.4452    1.2454   -1.7963 H         1 <0>         0.0000
     39 H20         2.0207   -0.0416   -2.8720 H         1 <0>         0.0000
     40 H21         3.0941    0.6306   -1.6225 H         1 <0>         0.0000
     41 H22         1.8645   -2.6487   -0.2609 H         1 <0>         0.0000
     42 H23         3.3566   -1.7101   -0.3977 H         1 <0>         0.0000
     43 H24         2.5129   -2.2695   -1.8721 H         1 <0>         0.0000
@<TRIPOS>BOND
     1    1    2 1
     2    1    3 2
     3    1   20 1
     4    2    4 2
     5    2   21 1
     6    3   14 1
     7    3   22 1
     8    4    5 1
     9    4   14 1
    10    5   13 1
    11    5   19 2
    12    6   14 1
    13    6   23 1
    14    6   24 1
    15    6   25 1
    16    7   15 1
    17    7   26 1
    18    7   27 1
    19    7   28 1
    20    8   15 1
    21    8   29 1
    22    8   30 1
    23    8   31 1
    24    9   16 1
    25    9   32 1
    26    9   33 1
    27    9   34 1
    28   10   16 1
    29   10   35 1
    30   10   36 1
    31   10   37 1
    32   11   17 1
    33   11   38 1
    34   11   39 1
    35   11   40 1
    36   12   17 1
    37   12   41 1
    38   12   42 1
    39   12   43 1
    40   13   18 2
    41   15   18 1
    42   16   18 1
    43   17   18 1
