@<TRIPOS>MOLECULE
*****
   21    21     0     0     0
SMALL
NO_CHARGES

@<TRIPOS>ATOM
      1 C1          1.1768    1.3042   -1.2254 C.2       1 <0>         0.0000
      2 C2          0.5689   -1.4100    0.2528 C.3       1 <0>         0.0000
      3 C3         -0.3005   -0.8740    1.3836 C.3       1 <0>         0.0000
      4 C4         -0.9451    0.9847    0.0965 C.3       1 <0>         0.0000
      5 C5         -0.1249    0.4919   -1.1036 C.3       1 <0>         0.0000
      6 C6          3.4848    1.2426   -1.7334 C.3       1 <0>         0.0000
      7 N1          0.0103   -0.9613   -1.0321 N.3       1 <0>         0.0000
      8 O1          1.2393    2.5116   -1.1046 O.2       1 <0>         0.0000
      9 O2         -0.3786    0.5519    1.3289 O.3       1 <0>         0.0000
     10 O3          2.2400    0.5320   -1.5544 O.3       1 <0>         0.0000
     11 H1          1.6058   -1.0718    0.4063 H         1 <0>         0.0000
     12 H2          0.5608   -2.5053    0.2717 H         1 <0>         0.0000
     13 H3         -1.3110   -1.3050    1.3157 H         1 <0>         0.0000
     14 H4          0.1285   -1.1220    2.3577 H         1 <0>         0.0000
     15 H5         -0.9623    2.0743    0.1220 H         1 <0>         0.0000
     16 H6         -1.9702    0.5997   -0.0040 H         1 <0>         0.0000
     17 H7         -0.6932    0.7425   -2.0095 H         1 <0>         0.0000
     18 H8          4.2210    0.4809   -1.9893 H         1 <0>         0.0000
     19 H9          3.7623    1.7549   -0.8096 H         1 <0>         0.0000
     20 H10         3.3905    1.9762   -2.5372 H         1 <0>         0.0000
     21 H11         0.6005   -1.2871   -1.7928 H         1 <0>         0.0000
@<TRIPOS>BOND
     1    1    5 1
     2    1    8 2
     3    1   10 1
     4    2    3 1
     5    2    7 1
     6    2   11 1
     7    2   12 1
     8    3    9 1
     9    3   13 1
    10    3   14 1
    11    4    5 1
    12    4    9 1
    13    4   15 1
    14    4   16 1
    15    5    7 1
    16    5   17 1
    17    6   10 1
    18    6   18 1
    19    6   19 1
    20    6   20 1
    21    7   21 1
