@<TRIPOS>MOLECULE
*****
   42    45     0     0     0
SMALL
NO_CHARGES

@<TRIPOS>ATOM
      1 C1          6.6220   11.8948   -3.2392 C.ar      1 <0>         0.0000
      2 C2          7.2562   10.6617   -3.5270 C.ar      1 <0>         0.0000
      3 C3          4.5237   -0.9741   -3.4389 C.ar      1 <0>         0.0000
      4 C4          3.4622   -0.6931   -2.5710 C.ar      1 <0>         0.0000
      5 C5          5.2533   11.9349   -3.0804 C.ar      1 <0>         0.0000
      6 C6          6.5155    9.5042   -3.6630 C.ar      1 <0>         0.0000
      7 C7          3.0571   10.7959   -3.0299 C.ar      1 <0>         0.0000
      8 C8          5.2365    0.0569   -4.0642 C.ar      1 <0>         0.0000
      9 C9          2.3083    9.6493   -3.1482 C.ar      1 <0>         0.0000
     10 C10         3.0915    0.6338   -2.3109 C.ar      1 <0>         0.0000
     11 C11         4.4660   10.7590   -3.2119 C.ar      1 <0>         0.0000
     12 C12         5.0978    9.5120   -3.5273 C.ar      1 <0>         0.0000
     13 C13         4.3002    8.3182   -3.6631 C.ar      1 <0>         0.0000
     14 C14         4.8645    1.3781   -3.8026 C.ar      1 <0>         0.0000
     15 C15         2.9222    8.4105   -3.4616 C.ar      1 <0>         0.0000
     16 C16         3.7965    1.6620   -2.9295 C.ar      1 <0>         0.0000
     17 C17         4.8853    3.7115   -3.9035 C.2       1 <0>         0.0000
     18 C18         4.9475    7.0736   -4.0942 C.2       1 <0>         0.0000
     19 C19         6.5687    2.4905   -5.2609 C.3       1 <0>         0.0000
     20 C20         1.7567    6.6306   -2.4432 C.3       1 <0>         0.0000
     21 N1          5.3028    4.8744   -4.2898 N.2       1 <0>         0.0000
     22 N2          4.5630    5.9008   -3.7201 N.2       1 <0>         0.0000
     23 N3          5.4508    2.5275   -4.3280 N.pl3     1 <0>         0.0000
     24 O1          2.0957    7.3281   -3.6487 O.3       1 <0>         0.0000
     25 S1          3.5337    3.4049   -2.7768 S.3       1 <0>         0.0000
     26 H1          7.2154   12.7993   -3.1353 H         1 <0>         0.0000
     27 H2          8.3374   10.6246   -3.6331 H         1 <0>         0.0000
     28 H3          4.8027   -2.0057   -3.6339 H         1 <0>         0.0000
     29 H4          2.9202   -1.5048   -2.0947 H         1 <0>         0.0000
     30 H5          4.7535   12.8721   -2.8458 H         1 <0>         0.0000
     31 H6          7.0347    8.5714   -3.8544 H         1 <0>         0.0000
     32 H7          2.5779   11.7450   -2.8013 H         1 <0>         0.0000
     33 H8          6.0584   -0.1691   -4.7361 H         1 <0>         0.0000
     34 H9          1.2281    9.6657   -3.0328 H         1 <0>         0.0000
     35 H10         2.2677    0.8555   -1.6382 H         1 <0>         0.0000
     36 H11         5.7938    7.1535   -4.7817 H         1 <0>         0.0000
     37 H12         6.2872    1.9434   -6.1669 H         1 <0>         0.0000
     38 H13         7.4324    2.0015   -4.7981 H         1 <0>         0.0000
     39 H14         6.8279    3.5149   -5.5217 H         1 <0>         0.0000
     40 H15         1.1388    5.7832   -2.7453 H         1 <0>         0.0000
     41 H16         1.1882    7.2796   -1.7634 H         1 <0>         0.0000
     42 H17         2.6594    6.2642   -1.9464 H         1 <0>         0.0000
@<TRIPOS>BOND
     1    1    2 ar
     2    1    5 ar
     3    1   26 1
     4    2    6 ar
     5    2   27 1
     6    3    4 ar
     7    3    8 ar
     8    3   28 1
     9    4   10 ar
    10    4   29 1
    11    5   11 ar
    12    5   30 1
    13    6   12 ar
    14    6   31 1
    15    7    9 ar
    16    7   11 ar
    17    7   32 1
    18    8   14 ar
    19    8   33 1
    20    9   15 ar
    21    9   34 1
    22   10   16 ar
    23   10   35 1
    24   11   12 ar
    25   12   13 ar
    26   13   15 ar
    27   13   18 1
    28   14   16 ar
    29   14   23 1
    30   15   24 1
    31   16   25 1
    32   17   21 2
    33   17   23 1
    34   17   25 1
    35   18   22 2
    36   18   36 1
    37   19   23 1
    38   19   37 1
    39   19   38 1
    40   19   39 1
    41   20   24 1
    42   20   40 1
    43   20   41 1
    44   20   42 1
    45   21   22 1
