@<TRIPOS>MOLECULE
*****
   21    21     0     0     0
SMALL
NO_CHARGES

@<TRIPOS>ATOM
      1 C1          1.8215   -1.0363   -0.1909 C.ar      1 <0>         0.0000
      2 C2          0.9676   -0.2665    0.5922 C.ar      1 <0>         0.0000
      3 C3          3.0741   -1.6513    1.7730 C.ar      1 <0>         0.0000
      4 C4          2.2286   -0.8837    2.5919 C.ar      1 <0>         0.0000
      5 C5          2.8875   -1.7411    0.3936 C.ar      1 <0>         0.0000
      6 C6          1.1767   -0.1961    1.9693 C.ar      1 <0>         0.0000
      7 C7          2.5339   -0.8827    4.0559 C.2       1 <0>         0.0000
      8 C8          1.9915   -0.0565    6.1939 C.3       1 <0>         0.0000
      9 C9          3.8026   -2.5699   -0.4444 C.3       1 <0>         0.0000
     10 O1          3.4333   -1.5459    4.5450 O.2       1 <0>         0.0000
     11 O2          1.7262   -0.0820    4.7753 O.3       1 <0>         0.0000
     12 F1          0.3156    0.5592    2.6787 F         1 <0>         0.0000
     13 Br1         5.2299   -1.4525   -1.3078 Br        1 <0>         0.0000
     14 H1          1.6662   -1.0848   -1.2658 H         1 <0>         0.0000
     15 H2          0.1373    0.2832    0.1601 H         1 <0>         0.0000
     16 H3          3.8902   -2.1783    2.2584 H         1 <0>         0.0000
     17 H4          1.2567    0.6321    6.6099 H         1 <0>         0.0000
     18 H5          3.0069    0.2977    6.3845 H         1 <0>         0.0000
     19 H6          1.8723   -1.0550    6.6206 H         1 <0>         0.0000
     20 H7          3.2960   -3.0462   -1.2817 H         1 <0>         0.0000
     21 H8          4.3473   -3.3118    0.1355 H         1 <0>         0.0000
@<TRIPOS>BOND
     1    1    2 ar
     2    1    5 ar
     3    1   14 1
     4    2    6 ar
     5    2   15 1
     6    3    4 ar
     7    3    5 ar
     8    3   16 1
     9    4    6 ar
    10    4    7 1
    11    5    9 1
    12    6   12 1
    13    7   10 2
    14    7   11 1
    15    8   11 1
    16    8   17 1
    17    8   18 1
    18    8   19 1
    19    9   13 1
    20    9   20 1
    21    9   21 1
