@<TRIPOS>MOLECULE
*****
   21    21     0     0     0
SMALL
NO_CHARGES

@<TRIPOS>ATOM
      1 C1          2.0479   -0.9056   -0.2064 C.ar      1 <0>         0.0000
      2 C2          0.9113   -0.6180    0.5425 C.ar      1 <0>         0.0000
      3 C3          3.1524   -1.7177    1.7746 C.ar      1 <0>         0.0000
      4 C4          2.0199   -1.4397    2.5587 C.ar      1 <0>         0.0000
      5 C5          3.1849   -1.4622    0.4036 C.ar      1 <0>         0.0000
      6 C6          0.9063   -0.8851    1.9112 C.ar      1 <0>         0.0000
      7 C7          2.1144   -1.7719    4.0138 C.2       1 <0>         0.0000
      8 C8          1.0811   -1.7224    6.1298 C.3       1 <0>         0.0000
      9 C9          4.4037   -1.7741   -0.3988 C.3       1 <0>         0.0000
     10 O1          3.0909   -2.3112    4.5077 O.2       1 <0>         0.0000
     11 O2          1.0255   -1.4169    4.7203 O.3       1 <0>         0.0000
     12 F1         -0.2230   -0.5929    2.5852 F         1 <0>         0.0000
     13 Br1         5.5541   -0.1492   -0.6588 Br        1 <0>         0.0000
     14 H1          2.0573   -0.6891   -1.2717 H         1 <0>         0.0000
     15 H2          0.0224   -0.1907    0.0892 H         1 <0>         0.0000
     16 H3          4.0139   -2.1430    2.2805 H         1 <0>         0.0000
     17 H4          0.1321   -1.3734    6.5357 H         1 <0>         0.0000
     18 H5          1.9188   -1.2015    6.5989 H         1 <0>         0.0000
     19 H6          1.1955   -2.7982    6.2813 H         1 <0>         0.0000
     20 H7          4.1727   -2.1004   -1.4111 H         1 <0>         0.0000
     21 H8          5.0545   -2.4967    0.0886 H         1 <0>         0.0000
@<TRIPOS>BOND
     1    1    2 ar
     2    1    5 ar
     3    1   14 1
     4    2    6 ar
     5    2   15 1
     6    3    4 ar
     7    3    5 ar
     8    3   16 1
     9    4    6 ar
    10    4    7 1
    11    5    9 1
    12    6   12 1
    13    7   10 2
    14    7   11 1
    15    8   11 1
    16    8   17 1
    17    8   18 1
    18    8   19 1
    19    9   13 1
    20    9   20 1
    21    9   21 1
