@<TRIPOS>MOLECULE
*****
   37    40     0     0     0
SMALL
NO_CHARGES

@<TRIPOS>ATOM
      1 C1         -2.1128   -5.1031    1.4354 C.ar      1 <0>         0.0000
      2 C2         -0.9037   -0.9735   -0.8381 C.ar      1 <0>         0.0000
      3 C3         -1.1072   -4.4029    0.7721 C.ar      1 <0>         0.0000
      4 C4         -0.4573   -2.2202   -0.4337 C.ar      1 <0>         0.0000
      5 C5         -3.4140   -4.5660    1.6404 C.ar      1 <0>         0.0000
      6 C6         -2.2334   -0.4919   -0.6018 C.ar      1 <0>         0.0000
      7 C7         -1.3491   -3.0958    0.2627 C.ar      1 <0>         0.0000
      8 C8         -2.6431   -2.6061    0.4827 C.ar      1 <0>         0.0000
      9 C9         -3.6645   -3.2983    1.1500 C.ar      1 <0>         0.0000
     10 C10        -3.0963   -1.3340    0.0633 C.ar      1 <0>         0.0000
     11 C11        -4.7422    1.1350    0.9898 C.2       1 <0>         0.0000
     12 C12        -4.0305    2.3438    2.6080 C.2       1 <0>         0.0000
     13 C13        -4.8569   -2.3935    1.1584 C.2       1 <0>         0.0000
     14 C14        -3.2029    4.1343    4.1333 C.3       1 <0>         0.0000
     15 C15        -2.6589    1.6829    4.5824 C.3       1 <0>         0.0000
     16 C16        -5.2902   -0.0696    0.2950 C.3       1 <0>         0.0000
     17 C17        -3.6909    2.6843    4.0241 C.3       1 <0>         0.0000
     18 N1         -4.3162    2.2384    0.4608 N.2       1 <0>         0.0000
     19 N2         -3.8548    3.0346    1.5228 N.2       1 <0>         0.0000
     20 N3         -4.4386   -1.2285    0.4682 N.am      1 <0>         0.0000
     21 O1         -5.9720   -2.5553    1.6321 O.2       1 <0>         0.0000
     22 O2         -4.5966    1.1182    2.3482 O.3       1 <0>         0.0000
     23 H1         -1.8960   -6.0989    1.8127 H         1 <0>         0.0000
     24 H2         -0.2168   -0.3144   -1.3624 H         1 <0>         0.0000
     25 H3         -0.1293   -4.8616    0.6451 H         1 <0>         0.0000
     26 H4          0.5637   -2.5288   -0.6419 H         1 <0>         0.0000
     27 H5         -4.1755   -5.1368    2.1643 H         1 <0>         0.0000
     28 H6         -2.5213    0.5014   -0.9317 H         1 <0>         0.0000
     29 H7         -2.2875    4.2812    3.5534 H         1 <0>         0.0000
     30 H8         -2.9927    4.3725    5.1804 H         1 <0>         0.0000
     31 H9         -3.9510    4.8373    3.7582 H         1 <0>         0.0000
     32 H10        -1.7144    1.7579    4.0336 H         1 <0>         0.0000
     33 H11        -3.0191    0.6531    4.5094 H         1 <0>         0.0000
     34 H12        -2.4607    1.9035    5.6358 H         1 <0>         0.0000
     35 H13        -6.2702   -0.3383    0.6995 H         1 <0>         0.0000
     36 H14        -5.3997    0.1834   -0.7638 H         1 <0>         0.0000
     37 H15        -4.6156    2.5743    4.6059 H         1 <0>         0.0000
@<TRIPOS>BOND
     1    1    3 ar
     2    1    5 ar
     3    1   23 1
     4    2    4 ar
     5    2    6 ar
     6    2   24 1
     7    3    7 ar
     8    3   25 1
     9    4    7 ar
    10    4   26 1
    11    5    9 ar
    12    5   27 1
    13    6   10 ar
    14    6   28 1
    15    7    8 ar
    16    8    9 ar
    17    8   10 ar
    18    9   13 1
    19   10   20 1
    20   11   16 1
    21   11   18 2
    22   11   22 1
    23   12   17 1
    24   12   19 2
    25   12   22 1
    26   13   20 am
    27   13   21 2
    28   14   17 1
    29   14   29 1
    30   14   30 1
    31   14   31 1
    32   15   17 1
    33   15   32 1
    34   15   33 1
    35   15   34 1
    36   16   20 1
    37   16   35 1
    38   16   36 1
    39   17   37 1
    40   18   19 1
