@<TRIPOS>MOLECULE
*****
   21    22     0     0     0
SMALL
NO_CHARGES

@<TRIPOS>ATOM
      1 C1          1.3920    0.1643    1.7923 C.ar      1 <0>         0.0000
      2 C2          1.6331   -0.3947    3.0442 C.ar      1 <0>         0.0000
      3 C3         -0.3329   -1.4969    1.4990 C.ar      1 <0>         0.0000
      4 C4          0.3857   -0.4071    1.0211 C.ar      1 <0>         0.0000
      5 C5          0.8596   -1.4853    3.4782 C.ar      1 <0>         0.0000
      6 C6          1.3557   -1.3238    6.0210 C.2       1 <0>         0.0000
      7 C7          0.4698   -3.4969    5.0937 C.3       1 <0>         0.0000
      8 C8          1.9225   -3.4681    4.7646 C.3       1 <0>         0.0000
      9 C9          1.1342   -2.1484    4.7980 C.3       1 <0>         0.0000
     10 N1         -0.0976   -2.0225    2.7074 N.ar      1 <0>         0.0000
     11 O1          1.7566   -1.7582    7.0871 O.2       1 <0>         0.0000
     12 O2          1.0273   -0.0118    5.8647 O.3       1 <0>         0.0000
     13 F1          0.1058    0.0943   -0.2065 F         1 <0>         0.0000
     14 H1          1.9615    1.0096    1.4175 H         1 <0>         0.0000
     15 H2          2.4090    0.0139    3.6822 H         1 <0>         0.0000
     16 H3         -1.1141   -1.9492    0.8910 H         1 <0>         0.0000
     17 H4         -0.2311   -3.8283    4.3371 H         1 <0>         0.0000
     18 H5          0.1910   -3.6668    6.1276 H         1 <0>         0.0000
     19 H6          2.6366   -3.6156    5.5678 H         1 <0>         0.0000
     20 H7          2.2322   -3.7937    3.7766 H         1 <0>         0.0000
     21 H8          1.1781    0.4013    6.7368 H         1 <0>         0.0000
@<TRIPOS>BOND
     1    1    2 ar
     2    1    4 ar
     3    1   14 1
     4    2    5 ar
     5    2   15 1
     6    3    4 ar
     7    3   10 ar
     8    3   16 1
     9    4   13 1
    10    5    9 1
    11    5   10 ar
    12    6    9 1
    13    6   11 2
    14    6   12 1
    15    7    8 1
    16    7    9 1
    17    7   17 1
    18    7   18 1
    19    8    9 1
    20    8   19 1
    21    8   20 1
    22   12   21 1
