@<TRIPOS>MOLECULE
*****
   28    30     0     0     0
SMALL
NO_CHARGES

@<TRIPOS>ATOM
      1 C1          1.8799    0.4547   -2.3009 C.ar      1 <0>         0.0000
      2 C2          0.1307    1.7423    3.5885 C.ar      1 <0>         0.0000
      3 C3          0.6883    1.6344    2.2980 C.ar      1 <0>         0.0000
      4 C4          2.5959    0.1639   -3.4578 C.ar      1 <0>         0.0000
      5 C5         -1.3859    0.6664    1.4114 C.ar      1 <0>         0.0000
      6 C6          1.3933    1.9299   -4.6217 C.ar      1 <0>         0.0000
      7 C7          0.9109    1.4746   -2.2634 C.ar      1 <0>         0.0000
      8 C8         -1.1732    1.3145    3.7462 C.ar      1 <0>         0.0000
      9 C9         -1.9112    0.7904    2.6826 C.ar      1 <0>         0.0000
     10 C10        -0.0612    1.1088    1.2517 C.ar      1 <0>         0.0000
     11 C11         0.6923    2.1961   -3.4487 C.ar      1 <0>         0.0000
     12 C12         2.3430    0.9097   -4.6135 C.ar      1 <0>         0.0000
     13 C13         0.1457    1.7738   -1.0219 C.2       1 <0>         0.0000
     14 C14        -3.2612    0.9455    4.4579 C.3       1 <0>         0.0000
     15 O1         -0.7279    2.6018   -0.9021 O.2       1 <0>         0.0000
     16 O2         -1.9351    1.2796    4.8967 O.3       1 <0>         0.0000
     17 O3         -3.1590    0.4117    3.1261 O.3       1 <0>         0.0000
     18 O4          0.5677    0.9609    0.0060 O.3       1 <0>         0.0000
     19 F1         -0.2126    3.1859   -3.4955 F         1 <0>         0.0000
     20 Cl1         3.2312    0.5609   -6.0782 Cl        1 <0>         0.0000
     21 H1          2.0653   -0.1153   -1.3985 H         1 <0>         0.0000
     22 H2          0.7006    2.1432    4.4201 H         1 <0>         0.0000
     23 H3          1.7055    1.9609    2.1079 H         1 <0>         0.0000
     24 H4          3.3382   -0.6268   -3.4688 H         1 <0>         0.0000
     25 H5         -1.9569    0.2641    0.5824 H         1 <0>         0.0000
     26 H6          1.1897    2.5152   -5.5117 H         1 <0>         0.0000
     27 H7         -3.6813    0.1859    5.1197 H         1 <0>         0.0000
     28 H8         -3.8779    1.8544    4.4363 H         1 <0>         0.0000
@<TRIPOS>BOND
     1    1    4 ar
     2    1    7 ar
     3    1   21 1
     4    2    3 ar
     5    2    8 ar
     6    2   22 1
     7    3   10 ar
     8    3   23 1
     9    4   12 ar
    10    4   24 1
    11    5    9 ar
    12    5   10 ar
    13    5   25 1
    14    6   11 ar
    15    6   12 ar
    16    6   26 1
    17    7   11 ar
    18    7   13 1
    19    8    9 ar
    20    8   16 1
    21    9   17 1
    22   10   18 1
    23   11   19 1
    24   12   20 1
    25   13   15 2
    26   13   18 1
    27   14   16 1
    28   14   17 1
    29   14   27 1
    30   14   28 1
