@<TRIPOS>MOLECULE
*****
   21    22     0     0     0
SMALL
NO_CHARGES

@<TRIPOS>ATOM
      1 C1          0.7138    0.2889    1.8569 C.ar      1 <0>         0.0000
      2 C2          1.0705   -0.2538    3.0881 C.ar      1 <0>         0.0000
      3 C3         -0.5956   -1.7016    1.4770 C.ar      1 <0>         0.0000
      4 C4         -0.1374   -0.4600    1.0515 C.ar      1 <0>         0.0000
      5 C5          0.5592   -1.5067    3.4690 C.ar      1 <0>         0.0000
      6 C6          0.9958   -1.3450    6.0224 C.2       1 <0>         0.0000
      7 C7          0.6283   -3.6209    4.9963 C.3       1 <0>         0.0000
      8 C8          2.0382   -3.2508    4.6887 C.3       1 <0>         0.0000
      9 C9          0.9713   -2.1460    4.7644 C.3       1 <0>         0.0000
     10 N1         -0.2519   -2.2113    2.6661 N.ar      1 <0>         0.0000
     11 O1          1.4778   -1.7234    7.0762 O.2       1 <0>         0.0000
     12 O2          0.3832   -0.1340    5.9135 O.3       1 <0>         0.0000
     13 F1         -0.5190    0.0170   -0.1582 F         1 <0>         0.0000
     14 H1          1.0810    1.2548    1.5229 H         1 <0>         0.0000
     15 H2          1.7338    0.2907    3.7511 H         1 <0>         0.0000
     16 H3         -1.2545   -2.2910    0.8423 H         1 <0>         0.0000
     17 H4          0.0240   -4.0698    4.2173 H         1 <0>         0.0000
     18 H5          0.3906   -3.8934    6.0185 H         1 <0>         0.0000
     19 H6          2.7638   -3.2666    5.4949 H         1 <0>         0.0000
     20 H7          2.4177   -3.4558    3.6927 H         1 <0>         0.0000
     21 H8          0.4329    0.2652    6.8035 H         1 <0>         0.0000
@<TRIPOS>BOND
     1    1    2 ar
     2    1    4 ar
     3    1   14 1
     4    2    5 ar
     5    2   15 1
     6    3    4 ar
     7    3   10 ar
     8    3   16 1
     9    4   13 1
    10    5    9 1
    11    5   10 ar
    12    6    9 1
    13    6   11 2
    14    6   12 1
    15    7    8 1
    16    7    9 1
    17    7   17 1
    18    7   18 1
    19    8    9 1
    20    8   19 1
    21    8   20 1
    22   12   21 1
