@<TRIPOS>MOLECULE
*****
   21    22     0     0     0
SMALL
NO_CHARGES

@<TRIPOS>ATOM
      1 C1          2.2542   -1.0938   -0.1514 C.ar      1 <0>         0.0000
      2 C2          1.0052   -1.0492    0.4679 C.ar      1 <0>         0.0000
      3 C3          3.4153   -1.1773    0.6208 C.ar      1 <0>         0.0000
      4 C4          0.8869   -1.1129    1.8649 C.ar      1 <0>         0.0000
      5 C5          2.0618   -1.2021    2.6254 C.ar      1 <0>         0.0000
      6 C6          3.3165   -1.2237    2.0127 C.ar      1 <0>         0.0000
      7 C7         -0.4680   -1.1534    2.5169 C.2       1 <0>         0.0000
      8 C8         -2.7006    0.0890    2.8124 C.3       1 <0>         0.0000
      9 C9         -2.9256   -0.9453    1.7596 C.3       1 <0>         0.0000
     10 C10        -1.5383   -0.3096    1.9097 C.3       1 <0>         0.0000
     11 O1         -0.6831   -1.8713    3.4857 O.2       1 <0>         0.0000
     12 F1          1.9928   -1.2285    3.9634 F         1 <0>         0.0000
     13 Br1         4.8904   -1.3149    3.0846 Br        1 <0>         0.0000
     14 H1          2.3296   -1.0624   -1.2342 H         1 <0>         0.0000
     15 H2          0.1051   -0.9935   -0.1367 H         1 <0>         0.0000
     16 H3          4.3941   -1.2027    0.1529 H         1 <0>         0.0000
     17 H4         -3.1080    1.0841    2.6641 H         1 <0>         0.0000
     18 H5         -2.6282   -0.2508    3.8403 H         1 <0>         0.0000
     19 H6         -3.0036   -1.9791    2.0805 H         1 <0>         0.0000
     20 H7         -3.4892   -0.6807    0.8701 H         1 <0>         0.0000
     21 H8         -1.2374    0.4040    1.1508 H         1 <0>         0.0000
@<TRIPOS>BOND
     1    1    2 ar
     2    1    3 ar
     3    1   14 1
     4    2    4 ar
     5    2   15 1
     6    3    6 ar
     7    3   16 1
     8    4    5 ar
     9    4    7 1
    10    5    6 ar
    11    5   12 1
    12    6   13 1
    13    7   10 1
    14    7   11 2
    15    8    9 1
    16    8   10 1
    17    8   17 1
    18    8   18 1
    19    9   10 1
    20    9   19 1
    21    9   20 1
    22   10   21 1
