@<TRIPOS>MOLECULE
*****
   39    41     0     0     0
SMALL
NO_CHARGES

@<TRIPOS>ATOM
      1 C1         -1.7458   -0.3450   -2.3686 C.ar      1 <0>         0.0000
      2 C2         -1.7859    0.9851   -1.9597 C.ar      1 <0>         0.0000
      3 C3          4.4526    0.5695   -2.8318 C.ar      1 <0>         0.0000
      4 C4         -0.9308   -1.2527   -1.6943 C.ar      1 <0>         0.0000
      5 C5          4.8034    0.1401   -1.5530 C.ar      1 <0>         0.0000
      6 C6          2.6108   -0.9608   -2.8549 C.ar      1 <0>         0.0000
      7 C7         -1.0109    1.4312   -0.8777 C.ar      1 <0>         0.0000
      8 C8          3.3473    0.0316   -3.5065 C.ar      1 <0>         0.0000
      9 C9         -0.1181   -0.8348   -0.6331 C.ar      1 <0>         0.0000
     10 C10        -0.1670    0.5138   -0.2023 C.ar      1 <0>         0.0000
     11 C11         4.0532   -0.8447   -0.8983 C.ar      1 <0>         0.0000
     12 C12         2.9488   -1.3987   -1.5682 C.ar      1 <0>         0.0000
     13 C13        -1.0614    2.8640   -0.4828 C.2       1 <0>         0.0000
     14 C14         1.0765   -1.3494    1.4280 C.3       1 <0>         0.0000
     15 C15         1.5240    0.1025    1.4285 C.3       1 <0>         0.0000
     16 C16         2.9817    0.4832   -4.9013 C.3       1 <0>         0.0000
     17 N1          0.7015   -1.7720    0.0697 N.pl3     1 <0>         0.0000
     18 O1         -0.3276    3.4436    0.2957 O.2       1 <0>         0.0000
     19 O2          1.1635   -3.2713   -1.9396 O.2       1 <0>         0.0000
     20 O3          2.6094   -3.4461    0.1445 O.2       1 <0>         0.0000
     21 O4          0.5151    0.9600    0.8794 O.3       1 <0>         0.0000
     22 O5          4.3468   -1.2450    0.3764 O.3       1 <0>         0.0000
     23 O6         -2.0677    3.5371   -1.1285 O.3       1 <0>         0.0000
     24 S1          1.8791   -2.6443   -0.8297 S.o2      1 <0>         0.0000
     25 H1         -2.3623   -0.6841   -3.1955 H         1 <0>         0.0000
     26 H2         -2.4239    1.6971   -2.4692 H         1 <0>         0.0000
     27 H3          5.0497    1.3432   -3.3089 H         1 <0>         0.0000
     28 H4         -0.9045   -2.2963   -1.9824 H         1 <0>         0.0000
     29 H5          5.6618    0.5799   -1.0478 H         1 <0>         0.0000
     30 H6          1.7591   -1.4202   -3.3451 H         1 <0>         0.0000
     31 H7          1.8664   -2.0015    1.7993 H         1 <0>         0.0000
     32 H8          0.1934   -1.4755    2.0626 H         1 <0>         0.0000
     33 H9          1.6917    0.4666    2.4444 H         1 <0>         0.0000
     34 H10         2.4433    0.2266    0.8527 H         1 <0>         0.0000
     35 H11         3.5625   -0.0603   -5.6559 H         1 <0>         0.0000
     36 H12         1.9229    0.3078   -5.1094 H         1 <0>         0.0000
     37 H13         3.1805    1.5504   -5.0380 H         1 <0>         0.0000
     38 H14         5.1674   -0.8107    0.6600 H         1 <0>         0.0000
     39 H15        -1.9950    4.4580   -0.8147 H         1 <0>         0.0000
@<TRIPOS>BOND
     1    1    2 ar
     2    1    4 ar
     3    1   25 1
     4    2    7 ar
     5    2   26 1
     6    3    5 ar
     7    3    8 ar
     8    3   27 1
     9    4    9 ar
    10    4   28 1
    11    5   11 ar
    12    5   29 1
    13    6    8 ar
    14    6   12 ar
    15    6   30 1
    16    7   10 ar
    17    7   13 1
    18    8   16 1
    19    9   10 ar
    20    9   17 1
    21   10   21 1
    22   11   12 ar
    23   11   22 1
    24   12   24 1
    25   13   18 2
    26   13   23 1
    27   14   15 1
    28   14   17 1
    29   14   31 1
    30   14   32 1
    31   15   21 1
    32   15   33 1
    33   15   34 1
    34   16   35 1
    35   16   36 1
    36   16   37 1
    37   17   24 1
    38   19   24 2
    39   20   24 2
    40   22   38 1
    41   23   39 1
