@<TRIPOS>MOLECULE
*****
   39    41     0     0     0
SMALL
NO_CHARGES

@<TRIPOS>ATOM
      1 C1         -1.3050   -0.3988   -2.0307 C.ar      1 <0>         0.0000
      2 C2         -2.1571    0.2383   -1.1333 C.ar      1 <0>         0.0000
      3 C3          1.4227   -3.5895    3.7303 C.ar      1 <0>         0.0000
      4 C4          0.0632   -0.4896   -1.7696 C.ar      1 <0>         0.0000
      5 C5          0.4560   -3.3966    2.7459 C.ar      1 <0>         0.0000
      6 C6          3.1010   -2.6597    2.2954 C.ar      1 <0>         0.0000
      7 C7         -1.6500    0.8395    0.0299 C.ar      1 <0>         0.0000
      8 C8          2.7639   -3.2285    3.5262 C.ar      1 <0>         0.0000
      9 C9          0.5851    0.0270   -0.5776 C.ar      1 <0>         0.0000
     10 C10        -0.2743    0.7287    0.2865 C.ar      1 <0>         0.0000
     11 C11         0.7994   -2.8273    1.5127 C.ar      1 <0>         0.0000
     12 C12         2.1372   -2.4552    1.3000 C.ar      1 <0>         0.0000
     13 C13        -2.6398    1.5562    0.9138 C.2       1 <0>         0.0000
     14 C14         2.5205    0.7214    0.8443 C.3       1 <0>         0.0000
     15 C15         1.5835    1.8757    1.1239 C.3       1 <0>         0.0000
     16 C16         3.8023   -3.4517    4.6015 C.3       1 <0>         0.0000
     17 N1          1.9633   -0.1257   -0.2366 N.pl3     1 <0>         0.0000
     18 O1         -3.8309    1.5528    0.6746 O.2       1 <0>         0.0000
     19 O2          4.1089   -1.4273   -0.0910 O.2       1 <0>         0.0000
     20 O3          2.1567   -2.4311   -1.3793 O.2       1 <0>         0.0000
     21 O4          0.2680    1.3504    1.4038 O.3       1 <0>         0.0000
     22 O5         -0.1101   -2.6164    0.5225 O.3       1 <0>         0.0000
     23 O6         -2.1631    2.2131    1.9957 O.3       1 <0>         0.0000
     24 S1          2.6775   -1.6914   -0.2385 S.o2      1 <0>         0.0000
     25 H1         -1.7010   -0.8263   -2.9471 H         1 <0>         0.0000
     26 H2         -3.2228    0.3193   -1.3187 H         1 <0>         0.0000
     27 H3          1.1256   -4.0326    4.6783 H         1 <0>         0.0000
     28 H4          0.7246   -0.9974   -2.4590 H         1 <0>         0.0000
     29 H5         -0.5761   -3.6899    2.9292 H         1 <0>         0.0000
     30 H6          4.1244   -2.3664    2.0835 H         1 <0>         0.0000
     31 H7          3.5055    1.0844    0.5409 H         1 <0>         0.0000
     32 H8          2.6347    0.1444    1.7686 H         1 <0>         0.0000
     33 H9          1.8985    2.4173    2.0167 H         1 <0>         0.0000
     34 H10         1.5156    2.5696    0.2790 H         1 <0>         0.0000
     35 H11         3.8714   -4.5112    4.8707 H         1 <0>         0.0000
     36 H12         4.7921   -3.1266    4.2713 H         1 <0>         0.0000
     37 H13         3.5542   -2.8982    5.5139 H         1 <0>         0.0000
     38 H14        -1.0027   -2.8238    0.8422 H         1 <0>         0.0000
     39 H15        -1.1892    2.1078    2.0409 H         1 <0>         0.0000
@<TRIPOS>BOND
     1    1    2 ar
     2    1    4 ar
     3    1   25 1
     4    2    7 ar
     5    2   26 1
     6    3    5 ar
     7    3    8 ar
     8    3   27 1
     9    4    9 ar
    10    4   28 1
    11    5   11 ar
    12    5   29 1
    13    6    8 ar
    14    6   12 ar
    15    6   30 1
    16    7   10 ar
    17    7   13 1
    18    8   16 1
    19    9   10 ar
    20    9   17 1
    21   10   21 1
    22   11   12 ar
    23   11   22 1
    24   12   24 1
    25   13   18 2
    26   13   23 1
    27   14   15 1
    28   14   17 1
    29   14   31 1
    30   14   32 1
    31   15   21 1
    32   15   33 1
    33   15   34 1
    34   16   35 1
    35   16   36 1
    36   16   37 1
    37   17   24 1
    38   19   24 2
    39   20   24 2
    40   22   38 1
    41   23   39 1
