@<TRIPOS>MOLECULE
*****
   39    41     0     0     0
SMALL
NO_CHARGES

@<TRIPOS>ATOM
      1 C1         -1.0186   -0.2059   -2.1942 C.ar      1 <0>         0.0000
      2 C2         -1.2363    1.0923   -1.7399 C.ar      1 <0>         0.0000
      3 C3          4.9211    1.0306   -1.6479 C.ar      1 <0>         0.0000
      4 C4         -0.3083   -1.1112   -1.4080 C.ar      1 <0>         0.0000
      5 C5          5.0728    0.6489   -0.3161 C.ar      1 <0>         0.0000
      6 C6          3.2572   -0.6630   -1.9589 C.ar      1 <0>         0.0000
      7 C7         -0.7556    1.5094   -0.4919 C.ar      1 <0>         0.0000
      8 C8          4.0073    0.3863   -2.4946 C.ar      1 <0>         0.0000
      9 C9          0.2234   -0.7175   -0.1720 C.ar      1 <0>         0.0000
     10 C10        -0.0224    0.5924    0.2910 C.ar      1 <0>         0.0000
     11 C11         4.3081   -0.3947    0.2197 C.ar      1 <0>         0.0000
     12 C12         3.3951   -1.0541   -0.6207 C.ar      1 <0>         0.0000
     13 C13        -1.0582    2.9393   -0.1084 C.2       1 <0>         0.0000
     14 C14         1.0336   -1.2749    2.0628 C.3       1 <0>         0.0000
     15 C15         1.3640    0.1981    2.2266 C.3       1 <0>         0.0000
     16 C16         3.8609    0.7894   -3.9433 C.3       1 <0>         0.0000
     17 N1          0.9570   -1.6352    0.6411 N.pl3     1 <0>         0.0000
     18 O1         -1.6758    3.6791   -0.8486 O.2       1 <0>         0.0000
     19 O2          1.8674   -3.0776   -1.2569 O.2       1 <0>         0.0000
     20 O3          2.9701   -3.1363    1.0328 O.2       1 <0>         0.0000
     21 O4          0.3901    1.0087    1.5393 O.3       1 <0>         0.0000
     22 O5          4.4027   -0.7546    1.5373 O.3       1 <0>         0.0000
     23 O6         -0.6158    3.3902    1.0867 O.3       1 <0>         0.0000
     24 S1          2.3394   -2.3965   -0.0537 S.o2      1 <0>         0.0000
     25 H1         -1.4173   -0.5245   -3.1527 H         1 <0>         0.0000
     26 H2         -1.7915    1.8148   -2.3283 H         1 <0>         0.0000
     27 H3          5.5235    1.8507   -2.0318 H         1 <0>         0.0000
     28 H4         -0.1476   -2.1300   -1.7381 H         1 <0>         0.0000
     29 H5          5.7849    1.1702    0.3217 H         1 <0>         0.0000
     30 H6          2.5538   -1.2052   -2.5815 H         1 <0>         0.0000
     31 H7          1.7883   -1.8936    2.5471 H         1 <0>         0.0000
     32 H8          0.0601   -1.4968    2.5119 H         1 <0>         0.0000
     33 H9          1.3111    0.5059    3.2727 H         1 <0>         0.0000
     34 H10         2.3552    0.4257    1.8321 H         1 <0>         0.0000
     35 H11         4.6438    0.3319   -4.5594 H         1 <0>         0.0000
     36 H12         2.8951    0.4743   -4.3465 H         1 <0>         0.0000
     37 H13         3.9388    1.8742   -4.0631 H         1 <0>         0.0000
     38 H14         5.1492   -0.2815    1.9394 H         1 <0>         0.0000
     39 H15        -0.1451    2.6704    1.5556 H         1 <0>         0.0000
@<TRIPOS>BOND
     1    1    2 ar
     2    1    4 ar
     3    1   25 1
     4    2    7 ar
     5    2   26 1
     6    3    5 ar
     7    3    8 ar
     8    3   27 1
     9    4    9 ar
    10    4   28 1
    11    5   11 ar
    12    5   29 1
    13    6    8 ar
    14    6   12 ar
    15    6   30 1
    16    7   10 ar
    17    7   13 1
    18    8   16 1
    19    9   10 ar
    20    9   17 1
    21   10   21 1
    22   11   12 ar
    23   11   22 1
    24   12   24 1
    25   13   18 2
    26   13   23 1
    27   14   15 1
    28   14   17 1
    29   14   31 1
    30   14   32 1
    31   15   21 1
    32   15   33 1
    33   15   34 1
    34   16   35 1
    35   16   36 1
    36   16   37 1
    37   17   24 1
    38   19   24 2
    39   20   24 2
    40   22   38 1
    41   23   39 1
