@<TRIPOS>MOLECULE
*****
   16    16     0     0     0
SMALL
NO_CHARGES

@<TRIPOS>ATOM
      1 C1          1.9986   -0.4184   -0.2407 C.ar      1 <0>         0.0000
      2 C2          0.8574    0.1454    0.3307 C.ar      1 <0>         0.0000
      3 C3          2.6071   -1.3622    1.9226 C.ar      1 <0>         0.0000
      4 C4          2.8486   -1.1766    0.5627 C.ar      1 <0>         0.0000
      5 C5          0.5964   -0.0515    1.6836 C.ar      1 <0>         0.0000
      6 C6          1.4639   -0.7946    2.4873 C.ar      1 <0>         0.0000
      7 C7          4.0767   -2.9263   -0.5383 C.3       1 <0>         0.0000
      8 O1          4.0451   -1.6757    0.0168 O.3       1 <0>         0.0000
      9 F1         -0.5086    0.5008    2.2199 F         1 <0>         0.0000
     10 Cl1         3.6512   -4.2286    0.6576 Cl        1 <0>         0.0000
     11 Cl2         5.7553   -3.1616   -1.1007 Cl        1 <0>         0.0000
     12 Cl3         2.9403   -3.0878   -1.9512 Cl        1 <0>         0.0000
     13 Br1         1.0918   -1.0191    4.3398 Br        1 <0>         0.0000
     14 H1          2.2299   -0.2693   -1.2888 H         1 <0>         0.0000
     15 H2          0.1660    0.7414   -0.2566 H         1 <0>         0.0000
     16 H3          3.3010   -1.9318    2.5290 H         1 <0>         0.0000
@<TRIPOS>BOND
     1    1    2 ar
     2    1    4 ar
     3    1   14 1
     4    2    5 ar
     5    2   15 1
     6    3    4 ar
     7    3    6 ar
     8    3   16 1
     9    4    8 1
    10    5    6 ar
    11    5    9 1
    12    6   13 1
    13    7    8 1
    14    7   10 1
    15    7   11 1
    16    7   12 1
