@<TRIPOS>MOLECULE
*****
   16    16     0     0     0
SMALL
NO_CHARGES

@<TRIPOS>ATOM
      1 C1          1.7590   -1.1325   -0.0750 C.ar      1 <0>         0.0000
      2 C2          0.7492   -0.4384    0.5907 C.ar      1 <0>         0.0000
      3 C3          2.8453   -1.6468    0.6445 C.ar      1 <0>         0.0000
      4 C4          0.7779   -0.2219    1.9789 C.ar      1 <0>         0.0000
      5 C5          1.8744   -0.7297    2.7114 C.ar      1 <0>         0.0000
      6 C6          2.8925   -1.3986    2.0122 C.ar      1 <0>         0.0000
      7 C7         -0.4000    0.5165    2.5800 C.2       1 <0>         0.0000
      8 O1         -1.3102    0.9155    1.8835 O.2       1 <0>         0.0000
      9 O2          1.9346   -0.5211    4.0619 O.3       1 <0>         0.0000
     10 O3         -0.4186    0.7152    3.9142 O.3       1 <0>         0.0000
     11 I1          4.1918   -2.7662    3.3187 I         1 <0>         0.0000
     12 H1          1.7049   -1.2800   -1.1496 H         1 <0>         0.0000
     13 H2         -0.1078   -0.0492    0.0508 H         1 <0>         0.0000
     14 H3          3.6356   -2.2043    0.1529 H         1 <0>         0.0000
     15 H4          2.6405   -1.0879    4.4400 H         1 <0>         0.0000
     16 H5          0.3762    0.3303    4.3347 H         1 <0>         0.0000
@<TRIPOS>BOND
     1    1    2 ar
     2    1    3 ar
     3    1   12 1
     4    2    4 ar
     5    2   13 1
     6    3    6 ar
     7    3   14 1
     8    4    5 ar
     9    4    7 1
    10    5    6 ar
    11    5    9 1
    12    6   11 1
    13    7    8 2
    14    7   10 1
    15    9   15 1
    16   10   16 1
