@<TRIPOS>MOLECULE
*****
   23    24     0     0     0
SMALL
NO_CHARGES

@<TRIPOS>ATOM
      1 C1          2.1546   -1.2846   -0.1345 C.ar      1 <0>         0.0000
      2 C2          0.9511   -0.6688    0.2327 C.ar      1 <0>         0.0000
      3 C3         -0.9613   -3.4885    4.7240 C.ar      1 <0>         0.0000
      4 C4         -1.1675   -3.1665    6.0694 C.ar      1 <0>         0.0000
      5 C5          3.0668   -1.7070    0.8354 C.ar      1 <0>         0.0000
      6 C6          0.6552   -0.4818    1.5863 C.ar      1 <0>         0.0000
      7 C7         -0.1233   -2.6900    3.9472 C.ar      1 <0>         0.0000
      8 C8         -0.5086   -2.0464    6.5787 C.ar      1 <0>         0.0000
      9 C9          2.7723   -1.5231    2.1905 C.ar      1 <0>         0.0000
     10 C10         1.5589   -0.9193    2.5507 C.ar      1 <0>         0.0000
     11 C11         0.4759   -1.5862    4.5733 C.ar      1 <0>         0.0000
     12 N1          0.3017   -1.2658    5.8495 N.ar      1 <0>         0.0000
     13 O1          3.6619   -1.9365    3.1402 O.3       1 <0>         0.0000
     14 O2          1.3340   -0.7248    3.9144 O.3       1 <0>         0.0000
     15 H1          2.3901   -1.4306   -1.1852 H         1 <0>         0.0000
     16 H2          0.2519   -0.3314   -0.5266 H         1 <0>         0.0000
     17 H3         -1.4445   -4.3549    4.2800 H         1 <0>         0.0000
     18 H4         -1.8138   -3.7635    6.7053 H         1 <0>         0.0000
     19 H5          4.0083   -2.1752    0.5638 H         1 <0>         0.0000
     20 H6         -0.2675   -0.0048    1.9048 H         1 <0>         0.0000
     21 H7          0.0609   -2.9135    2.9032 H         1 <0>         0.0000
     22 H8         -0.6314   -1.7566    7.6210 H         1 <0>         0.0000
     23 H9          3.3342   -1.6288    4.0049 H         1 <0>         0.0000
@<TRIPOS>BOND
     1    1    2 ar
     2    1    5 ar
     3    1   15 1
     4    2    6 ar
     5    2   16 1
     6    3    4 ar
     7    3    7 ar
     8    3   17 1
     9    4    8 ar
    10    4   18 1
    11    5    9 ar
    12    5   19 1
    13    6   10 ar
    14    6   20 1
    15    7   11 ar
    16    7   21 1
    17    8   12 ar
    18    8   22 1
    19    9   10 ar
    20    9   13 1
    21   10   14 1
    22   11   12 ar
    23   11   14 1
    24   13   23 1
