@<TRIPOS>MOLECULE
*****
   51    54     0     0     0
SMALL
NO_CHARGES

@<TRIPOS>ATOM
      1 C1          2.7404    1.3561    3.0747 C.1       1 <0>         0.0000
      2 C2          2.3637    0.4735    5.2995 C.ar      1 <0>         0.0000
      3 C3          2.1644    0.3513    3.9127 C.ar      1 <0>         0.0000
      4 C4          1.9048   -0.4879    6.1899 C.ar      1 <0>         0.0000
      5 C5          1.2423   -1.6016    5.6220 C.ar      1 <0>         0.0000
      6 C6          1.4444   -0.7903    3.4404 C.ar      1 <0>         0.0000
      7 C7          0.7653   -0.2656   -1.4613 C.2       1 <0>         0.0000
      8 C8         -1.2104    1.4687   -0.0621 C.3       1 <0>         0.0000
      9 C9         -1.6173    1.5080   -3.9928 C.3       1 <0>         0.0000
     10 C10        -1.0158    0.2005   -4.4692 C.3       1 <0>         0.0000
     11 C11        -1.1304   -0.0552    0.1557 C.3       1 <0>         0.0000
     12 C12         0.3448   -2.1305    0.2115 C.3       1 <0>         0.0000
     13 C13        -0.0695    2.0019   -0.9526 C.3       1 <0>         0.0000
     14 C14         0.4354   -2.2592    1.7337 C.3       1 <0>         0.0000
     15 C15         1.2699   -0.0783    1.0308 C.3       1 <0>         0.0000
     16 C16        -0.1347    1.4109   -4.2882 C.3       1 <0>         0.0000
     17 C17         0.2916   -0.6144   -0.0433 C.3       1 <0>         0.0000
     18 C18         2.1183   -0.3616    7.6786 C.3       1 <0>         0.0000
     19 C19         0.7349   -2.7202    6.4971 C.3       1 <0>         0.0000
     20 C20         0.9227    1.4537   -3.1940 C.3       1 <0>         0.0000
     21 N1          3.2387    2.1999    2.4390 N.1       1 <0>         0.0000
     22 N2          1.0241   -1.7338    4.3127 N.ar      1 <0>         0.0000
     23 N3          1.1364   -1.0295    2.1363 N.pl3     1 <0>         0.0000
     24 N4          0.4420    0.9944   -1.8889 N.am      1 <0>         0.0000
     25 O1          1.3643   -1.0772   -2.1704 O.2       1 <0>         0.0000
     26 H1          2.9050    1.3425    5.6648 H         1 <0>         0.0000
     27 H2         -2.1770    1.7142   -0.5117 H         1 <0>         0.0000
     28 H3         -1.1708    2.0002    0.8937 H         1 <0>         0.0000
     29 H4         -2.2401    2.0741   -4.6796 H         1 <0>         0.0000
     30 H5         -1.9347    1.5545   -2.9562 H         1 <0>         0.0000
     31 H6         -0.9121   -0.5999   -3.7438 H         1 <0>         0.0000
     32 H7         -1.2318   -0.1306   -5.4808 H         1 <0>         0.0000
     33 H8         -1.4976   -0.3146    1.1540 H         1 <0>         0.0000
     34 H9         -1.7856   -0.5635   -0.5595 H         1 <0>         0.0000
     35 H10         1.2344   -2.5388   -0.2719 H         1 <0>         0.0000
     36 H11        -0.5256   -2.6493   -0.1986 H         1 <0>         0.0000
     37 H12        -0.4246    2.8477   -1.5439 H         1 <0>         0.0000
     38 H13         0.7561    2.3789   -0.3352 H         1 <0>         0.0000
     39 H14        -0.5485   -2.3078    2.2142 H         1 <0>         0.0000
     40 H15         0.9929   -3.1418    2.0562 H         1 <0>         0.0000
     41 H16         2.2966   -0.0530    0.6474 H         1 <0>         0.0000
     42 H17         1.0119    0.9277    1.3594 H         1 <0>         0.0000
     43 H18         0.1937    1.8990   -5.2039 H         1 <0>         0.0000
     44 H19         1.1682   -0.3522    8.2253 H         1 <0>         0.0000
     45 H20         2.7084   -1.1953    8.0765 H         1 <0>         0.0000
     46 H21         2.6481    0.5640    7.9194 H         1 <0>         0.0000
     47 H22         0.0053   -2.3498    7.2267 H         1 <0>         0.0000
     48 H23         0.2628   -3.4869    5.8816 H         1 <0>         0.0000
     49 H24         1.5520   -3.1748    7.0691 H         1 <0>         0.0000
     50 H25         1.2938    2.4782   -3.0751 H         1 <0>         0.0000
     51 H26         1.7661    0.8209   -3.4783 H         1 <0>         0.0000
@<TRIPOS>BOND
     1    1    3 1
     2    1   21 3
     3    2    3 ar
     4    2    4 ar
     5    2   26 1
     6    3    6 ar
     7    4    5 ar
     8    4   18 1
     9    5   19 1
    10    5   22 ar
    11    6   22 ar
    12    6   23 1
    13    7   17 1
    14    7   24 am
    15    7   25 2
    16    8   11 1
    17    8   13 1
    18    8   27 1
    19    8   28 1
    20    9   10 1
    21    9   16 1
    22    9   29 1
    23    9   30 1
    24   10   16 1
    25   10   31 1
    26   10   32 1
    27   11   17 1
    28   11   33 1
    29   11   34 1
    30   12   14 1
    31   12   17 1
    32   12   35 1
    33   12   36 1
    34   13   24 1
    35   13   37 1
    36   13   38 1
    37   14   23 1
    38   14   39 1
    39   14   40 1
    40   15   17 1
    41   15   23 1
    42   15   41 1
    43   15   42 1
    44   16   20 1
    45   16   43 1
    46   18   44 1
    47   18   45 1
    48   18   46 1
    49   19   47 1
    50   19   48 1
    51   19   49 1
    52   20   24 1
    53   20   50 1
    54   20   51 1
