@<TRIPOS>MOLECULE
*****
   51    54     0     0     0
SMALL
NO_CHARGES

@<TRIPOS>ATOM
      1 C1         -4.1989    0.5354   -0.5119 C.1       1 <0>         0.0000
      2 C2         -5.0178   -0.1002   -2.7025 C.ar      1 <0>         0.0000
      3 C3         -3.9785   -0.1325   -1.7565 C.ar      1 <0>         0.0000
      4 C4         -4.9338   -0.7947   -3.9023 C.ar      1 <0>         0.0000
      5 C5         -3.7558   -1.5506   -4.1066 C.ar      1 <0>         0.0000
      6 C6         -2.8054   -0.8828   -2.0796 C.ar      1 <0>         0.0000
      7 C7          0.5686   -0.0269    1.4379 C.2       1 <0>         0.0000
      8 C8          0.7919    2.2301   -0.3719 C.3       1 <0>         0.0000
      9 C9          3.5348   -0.3806    3.4436 C.3       1 <0>         0.0000
     10 C10         3.4692    0.3865    4.7479 C.3       1 <0>         0.0000
     11 C11         0.8074    0.8322   -0.9820 C.3       1 <0>         0.0000
     12 C12         0.4195   -1.6372   -0.5161 C.3       1 <0>         0.0000
     13 C13         1.5738    2.2182    0.9333 C.3       1 <0>         0.0000
     14 C14        -0.5691   -1.8323   -1.6683 C.3       1 <0>         0.0000
     15 C15        -1.3864   -0.1207   -0.1363 C.3       1 <0>         0.0000
     16 C16         3.0162    1.0411    3.4605 C.3       1 <0>         0.0000
     17 C17         0.1583   -0.1940   -0.0363 C.3       1 <0>         0.0000
     18 C18        -6.0483   -0.7648   -4.9196 C.3       1 <0>         0.0000
     19 C19        -3.5820   -2.3770   -5.3564 C.3       1 <0>         0.0000
     20 C20         1.5375    1.2914    3.2419 C.3       1 <0>         0.0000
     21 N1         -4.4427    1.0859    0.4887 N.1       1 <0>         0.0000
     22 N2         -2.7459   -1.5822   -3.2354 N.ar      1 <0>         0.0000
     23 N3         -1.7001   -0.9705   -1.2904 N.pl3     1 <0>         0.0000
     24 N4          1.1241    1.1582    1.8387 N.am      1 <0>         0.0000
     25 O1          0.3370   -0.9411    2.2368 O.2       1 <0>         0.0000
     26 H1         -5.9096    0.4742   -2.4649 H         1 <0>         0.0000
     27 H2          1.2433    2.9592   -1.0529 H         1 <0>         0.0000
     28 H3         -0.2364    2.5580   -0.1831 H         1 <0>         0.0000
     29 H4          4.5134   -0.5622    3.0082 H         1 <0>         0.0000
     30 H5          2.8057   -1.1683    3.2828 H         1 <0>         0.0000
     31 H6          2.7039    0.0987    5.4637 H         1 <0>         0.0000
     32 H7          4.3986    0.7260    5.1958 H         1 <0>         0.0000
     33 H8          0.2910    0.8216   -1.9477 H         1 <0>         0.0000
     34 H9          1.8471    0.5384   -1.1760 H         1 <0>         0.0000
     35 H10         0.2003   -2.3230    0.3042 H         1 <0>         0.0000
     36 H11         1.4561   -1.7901   -0.8293 H         1 <0>         0.0000
     37 H12         2.6463    2.0951    0.7221 H         1 <0>         0.0000
     38 H13         1.4589    3.1729    1.4584 H         1 <0>         0.0000
     39 H14        -0.1590   -1.5184   -2.6348 H         1 <0>         0.0000
     40 H15        -0.8958   -2.8693   -1.7800 H         1 <0>         0.0000
     41 H16        -1.8504   -0.4991    0.7792 H         1 <0>         0.0000
     42 H17        -1.7337    0.9006   -0.2992 H         1 <0>         0.0000
     43 H18         3.6825    1.8014    3.0575 H         1 <0>         0.0000
     44 H19        -5.7074   -0.3696   -5.8837 H         1 <0>         0.0000
     45 H20        -6.4527   -1.7659   -5.1090 H         1 <0>         0.0000
     46 H21        -6.8728   -0.1340   -4.5762 H         1 <0>         0.0000
     47 H22        -3.6303   -1.7497   -6.2542 H         1 <0>         0.0000
     48 H23        -2.6184   -2.8872   -5.3318 H         1 <0>         0.0000
     49 H24        -4.3788   -3.1241   -5.4489 H         1 <0>         0.0000
     50 H25         1.2708    2.3020    3.5746 H         1 <0>         0.0000
     51 H26         0.9482    0.5783    3.8181 H         1 <0>         0.0000
@<TRIPOS>BOND
     1    1    3 1
     2    1   21 3
     3    2    3 ar
     4    2    4 ar
     5    2   26 1
     6    3    6 ar
     7    4    5 ar
     8    4   18 1
     9    5   19 1
    10    5   22 ar
    11    6   22 ar
    12    6   23 1
    13    7   17 1
    14    7   24 am
    15    7   25 2
    16    8   11 1
    17    8   13 1
    18    8   27 1
    19    8   28 1
    20    9   10 1
    21    9   16 1
    22    9   29 1
    23    9   30 1
    24   10   16 1
    25   10   31 1
    26   10   32 1
    27   11   17 1
    28   11   33 1
    29   11   34 1
    30   12   14 1
    31   12   17 1
    32   12   35 1
    33   12   36 1
    34   13   24 1
    35   13   37 1
    36   13   38 1
    37   14   23 1
    38   14   39 1
    39   14   40 1
    40   15   17 1
    41   15   23 1
    42   15   41 1
    43   15   42 1
    44   16   20 1
    45   16   43 1
    46   18   44 1
    47   18   45 1
    48   18   46 1
    49   19   47 1
    50   19   48 1
    51   19   49 1
    52   20   24 1
    53   20   50 1
    54   20   51 1
