@<TRIPOS>MOLECULE
*****
   20    20     0     0     0
SMALL
NO_CHARGES

@<TRIPOS>ATOM
      1 C1          1.4039    0.6308    3.4044 C.2       1 <0>         0.0000
      2 C2          1.4096    0.4829    4.7838 C.2       1 <0>         0.0000
      3 C3          2.5752   -0.2753    5.1018 C.2       1 <0>         0.0000
      4 C4          2.3838   -1.5758    1.0306 C.2       1 <0>         0.0000
      5 C5          3.0656   -0.7573    6.4325 C.3       1 <0>         0.0000
      6 C6          3.1585   -2.8146    1.4083 C.3       1 <0>         0.0000
      7 C7          2.9146   -0.2340    1.5748 C.3       1 <0>         0.0000
      8 N1          3.2158   -0.5961    3.9704 N.2       1 <0>         0.0000
      9 N2          2.5060   -0.0260    2.9555 N.pl3     1 <0>         0.0000
     10 O1          1.3810   -1.5903    0.3382 O.2       1 <0>         0.0000
     11 I1          0.3225    1.7948    6.1493 I         1 <0>         0.0000
     12 H1          0.7274    1.1469    2.7378 H         1 <0>         0.0000
     13 H2          2.3494   -1.4557    6.8767 H         1 <0>         0.0000
     14 H3          4.0284   -1.2589    6.3219 H         1 <0>         0.0000
     15 H4          3.1711    0.0769    7.1324 H         1 <0>         0.0000
     16 H5          3.3976   -2.8042    2.4760 H         1 <0>         0.0000
     17 H6          2.5977   -3.7109    1.1401 H         1 <0>         0.0000
     18 H7          4.1149   -2.8115    0.8698 H         1 <0>         0.0000
     19 H8          2.5020    0.5710    0.9650 H         1 <0>         0.0000
     20 H9          4.0070   -0.2003    1.5482 H         1 <0>         0.0000
@<TRIPOS>BOND
     1    1    2 2
     2    1    9 1
     3    1   12 1
     4    2    3 1
     5    2   11 1
     6    3    5 1
     7    3    8 2
     8    4    6 1
     9    4    7 1
    10    4   10 2
    11    5   13 1
    12    5   14 1
    13    5   15 1
    14    6   16 1
    15    6   17 1
    16    6   18 1
    17    7    9 1
    18    7   19 1
    19    7   20 1
    20    8    9 1
