@<TRIPOS>MOLECULE
*****
   51    54     0     0     0
SMALL
NO_CHARGES

@<TRIPOS>ATOM
      1 C1         -1.6617   -2.9781   -3.2653 C.1       1 <0>         0.0000
      2 C2         -1.1451   -2.4159   -5.5619 C.ar      1 <0>         0.0000
      3 C3         -0.9332   -2.1710   -4.1938 C.ar      1 <0>         0.0000
      4 C4         -0.4360   -1.7371   -6.5444 C.ar      1 <0>         0.0000
      5 C5          0.5203   -0.7996   -6.0900 C.ar      1 <0>         0.0000
      6 C6          0.0266   -1.1736   -3.8361 C.ar      1 <0>         0.0000
      7 C7         -0.0048   -0.6550    1.0962 C.2       1 <0>         0.0000
      8 C8         -0.7779    2.1122    0.6943 C.3       1 <0>         0.0000
      9 C9         -2.8946   -0.5240    4.3579 C.3       1 <0>         0.0000
     10 C10        -2.0793   -1.4544    5.2333 C.3       1 <0>         0.0000
     11 C11        -0.9487    1.1507   -0.4772 C.3       1 <0>         0.0000
     12 C12         1.4244    0.2464   -0.7653 C.3       1 <0>         0.0000
     13 C13        -1.1449    1.3970    1.9868 C.3       1 <0>         0.0000
     14 C14         1.3818    0.1805   -2.2942 C.3       1 <0>         0.0000
     15 C15        -0.4152   -1.1696   -1.3461 C.3       1 <0>         0.0000
     16 C16        -1.6829   -1.2345    3.7922 C.3       1 <0>         0.0000
     17 C17        -0.0293   -0.0754   -0.3287 C.3       1 <0>         0.0000
     18 C18        -0.6598   -2.0002   -8.0137 C.3       1 <0>         0.0000
     19 C19         1.3688   -0.0318   -7.0728 C.3       1 <0>         0.0000
     20 C20        -0.4143   -0.4684    3.4787 C.3       1 <0>         0.0000
     21 N1         -2.2815   -3.6784   -2.5660 N.1       1 <0>         0.0000
     22 N2          0.7305   -0.5353   -4.7995 N.ar      1 <0>         0.0000
     23 N3          0.3176   -0.7952   -2.5628 N.pl3     1 <0>         0.0000
     24 N4         -0.4187    0.1323    2.1384 N.am      1 <0>         0.0000
     25 O1          0.4492   -1.7876    1.2870 O.2       1 <0>         0.0000
     26 H1         -1.8774   -3.1699   -5.8393 H         1 <0>         0.0000
     27 H2          0.2547    2.4747    0.7514 H         1 <0>         0.0000
     28 H3         -1.4229    2.9893    0.5760 H         1 <0>         0.0000
     29 H4         -3.8799   -0.8498    4.0373 H         1 <0>         0.0000
     30 H5         -2.8163    0.5425    4.5535 H         1 <0>         0.0000
     31 H6         -1.4581   -1.0054    6.0044 H         1 <0>         0.0000
     32 H7         -2.5066   -2.4143    5.5063 H         1 <0>         0.0000
     33 H8         -1.9933    0.8161   -0.5086 H         1 <0>         0.0000
     34 H9         -0.7542    1.6503   -1.4318 H         1 <0>         0.0000
     35 H10         2.0893   -0.5257   -0.3700 H         1 <0>         0.0000
     36 H11         1.7719    1.2174   -0.4035 H         1 <0>         0.0000
     37 H12        -0.9048    2.0234    2.8528 H         1 <0>         0.0000
     38 H13        -2.2273    1.2103    2.0165 H         1 <0>         0.0000
     39 H14         1.1390    1.1467   -2.7516 H         1 <0>         0.0000
     40 H15         2.3286   -0.1483   -2.7302 H         1 <0>         0.0000
     41 H16        -0.1129   -2.1532   -0.9797 H         1 <0>         0.0000
     42 H17        -1.4914   -1.1802   -1.5270 H         1 <0>         0.0000
     43 H18        -1.8745   -2.0572    3.1084 H         1 <0>         0.0000
     44 H19        -0.9767   -1.0951   -8.5448 H         1 <0>         0.0000
     45 H20         0.2521   -2.3577   -8.5062 H         1 <0>         0.0000
     46 H21        -1.4341   -2.7582   -8.1603 H         1 <0>         0.0000
     47 H22         0.7461    0.5638   -7.7506 H         1 <0>         0.0000
     48 H23         2.0458    0.6342   -6.5364 H         1 <0>         0.0000
     49 H24         1.9588   -0.7107   -7.6994 H         1 <0>         0.0000
     50 H25         0.4455   -1.1377    3.5360 H         1 <0>         0.0000
     51 H26        -0.2717    0.3392    4.2061 H         1 <0>         0.0000
@<TRIPOS>BOND
     1    1    3 1
     2    1   21 3
     3    2    3 ar
     4    2    4 ar
     5    2   26 1
     6    3    6 ar
     7    4    5 ar
     8    4   18 1
     9    5   19 1
    10    5   22 ar
    11    6   22 ar
    12    6   23 1
    13    7   17 1
    14    7   24 am
    15    7   25 2
    16    8   11 1
    17    8   13 1
    18    8   27 1
    19    8   28 1
    20    9   10 1
    21    9   16 1
    22    9   29 1
    23    9   30 1
    24   10   16 1
    25   10   31 1
    26   10   32 1
    27   11   17 1
    28   11   33 1
    29   11   34 1
    30   12   14 1
    31   12   17 1
    32   12   35 1
    33   12   36 1
    34   13   24 1
    35   13   37 1
    36   13   38 1
    37   14   23 1
    38   14   39 1
    39   14   40 1
    40   15   17 1
    41   15   23 1
    42   15   41 1
    43   15   42 1
    44   16   20 1
    45   16   43 1
    46   18   44 1
    47   18   45 1
    48   18   46 1
    49   19   47 1
    50   19   48 1
    51   19   49 1
    52   20   24 1
    53   20   50 1
    54   20   51 1
