@<TRIPOS>MOLECULE
*****
   37    40     0     0     0
SMALL
NO_CHARGES

@<TRIPOS>ATOM
      1 C1         -3.0160   -5.7541    0.6981 C.ar      1 <0>         0.0000
      2 C2         -2.7545   -1.3084   -1.2650 C.ar      1 <0>         0.0000
      3 C3         -2.5933   -4.9975   -0.3930 C.ar      1 <0>         0.0000
      4 C4         -2.4496   -2.6476   -1.4407 C.ar      1 <0>         0.0000
      5 C5         -3.6667   -5.1784    1.8244 C.ar      1 <0>         0.0000
      6 C6         -3.4117   -0.7908   -0.1005 C.ar      1 <0>         0.0000
      7 C7         -2.8000   -3.5894   -0.4224 C.ar      1 <0>         0.0000
      8 C8         -3.4407   -3.0627    0.7067 C.ar      1 <0>         0.0000
      9 C9         -3.8731   -3.8118    1.8110 C.ar      1 <0>         0.0000
     10 C10        -3.7457   -1.6934    0.8843 C.ar      1 <0>         0.0000
     11 C11        -5.9787    0.2401    1.8549 C.2       1 <0>         0.0000
     12 C12        -7.8248    0.3644    0.7765 C.2       1 <0>         0.0000
     13 C13        -4.5055   -2.8432    2.7610 C.2       1 <0>         0.0000
     14 C14        -9.0047   -1.4010   -0.5302 C.3       1 <0>         0.0000
     15 C15        -9.8370    1.0102   -0.5468 C.3       1 <0>         0.0000
     16 C16        -4.9095   -0.3596    2.7101 C.3       1 <0>         0.0000
     17 C17        -9.1567   -0.0931    0.2732 C.3       1 <0>         0.0000
     18 N1         -5.9567    1.3715    1.2237 N.2       1 <0>         0.0000
     19 N2         -7.1704    1.4562    0.5206 N.2       1 <0>         0.0000
     20 N3         -4.3766   -1.5778    2.1355 N.am      1 <0>         0.0000
     21 O1         -5.0321   -3.0278    3.8484 O.2       1 <0>         0.0000
     22 O2         -7.1279   -0.4624    1.6254 O.3       1 <0>         0.0000
     23 H1         -2.8435   -6.8271    0.6895 H         1 <0>         0.0000
     24 H2         -2.4879   -0.6021   -2.0467 H         1 <0>         0.0000
     25 H3         -2.1020   -5.4907   -1.2287 H         1 <0>         0.0000
     26 H4         -1.9502   -2.9796   -2.3471 H         1 <0>         0.0000
     27 H5         -3.9867   -5.7964    2.6585 H         1 <0>         0.0000
     28 H6         -3.6365    0.2685   -0.0257 H         1 <0>         0.0000
     29 H7         -8.3987   -1.2334   -1.4266 H         1 <0>         0.0000
     30 H8         -9.9896   -1.7590   -0.8454 H         1 <0>         0.0000
     31 H9         -8.5292   -2.1848    0.0657 H         1 <0>         0.0000
     32 H10        -9.2447    1.2579   -1.4322 H         1 <0>         0.0000
     33 H11        -9.9597    1.9253    0.0380 H         1 <0>         0.0000
     34 H12       -10.8238    0.6685   -0.8738 H         1 <0>         0.0000
     35 H13        -4.1254    0.3936    2.8320 H         1 <0>         0.0000
     36 H14        -5.3040   -0.6248    3.6951 H         1 <0>         0.0000
     37 H15        -9.7707   -0.3103    1.1573 H         1 <0>         0.0000
@<TRIPOS>BOND
     1    1    3 ar
     2    1    5 ar
     3    1   23 1
     4    2    4 ar
     5    2    6 ar
     6    2   24 1
     7    3    7 ar
     8    3   25 1
     9    4    7 ar
    10    4   26 1
    11    5    9 ar
    12    5   27 1
    13    6   10 ar
    14    6   28 1
    15    7    8 ar
    16    8    9 ar
    17    8   10 ar
    18    9   13 1
    19   10   20 1
    20   11   16 1
    21   11   18 2
    22   11   22 1
    23   12   17 1
    24   12   19 2
    25   12   22 1
    26   13   20 am
    27   13   21 2
    28   14   17 1
    29   14   29 1
    30   14   30 1
    31   14   31 1
    32   15   17 1
    33   15   32 1
    34   15   33 1
    35   15   34 1
    36   16   20 1
    37   16   35 1
    38   16   36 1
    39   17   37 1
    40   18   19 1
