@<TRIPOS>MOLECULE
*****
   51    54     0     0     0
SMALL
NO_CHARGES

@<TRIPOS>ATOM
      1 C1          2.8501    1.3967    2.8436 C.1       1 <0>         0.0000
      2 C2          2.4441    0.7048    5.1310 C.ar      1 <0>         0.0000
      3 C3          2.1957    0.5157    3.7599 C.ar      1 <0>         0.0000
      4 C4          1.9212   -0.1512    6.0913 C.ar      1 <0>         0.0000
      5 C5          1.1433   -1.2310    5.6109 C.ar      1 <0>         0.0000
      6 C6          1.3563   -0.5772    3.3785 C.ar      1 <0>         0.0000
      7 C7          0.5747   -0.2480   -1.5132 C.2       1 <0>         0.0000
      8 C8         -1.2418    1.6990   -0.1829 C.3       1 <0>         0.0000
      9 C9          2.5784    3.3055   -2.9433 C.3       1 <0>         0.0000
     10 C10         2.8334    2.7482   -4.3291 C.3       1 <0>         0.0000
     11 C11        -1.2647    0.1898    0.1352 C.3       1 <0>         0.0000
     12 C12         0.0465   -1.9899    0.2616 C.3       1 <0>         0.0000
     13 C13        -0.0832    2.0903   -1.1214 C.3       1 <0>         0.0000
     14 C14         0.1741   -2.0455    1.7856 C.3       1 <0>         0.0000
     15 C15         1.1540    0.0222    0.9428 C.3       1 <0>         0.0000
     16 C16         2.2899    1.8501   -3.2422 C.3       1 <0>         0.0000
     17 C17         0.1018   -0.4891   -0.0732 C.3       1 <0>         0.0000
     18 C18         2.1872    0.0462    7.5637 C.3       1 <0>         0.0000
     19 C19         0.5615   -2.2419    6.5669 C.3       1 <0>         0.0000
     20 C20         0.8637    1.3458   -3.3279 C.3       1 <0>         0.0000
     21 N1          3.4182    2.1359    2.1400 N.1       1 <0>         0.0000
     22 N2          0.8759   -1.4223    4.3180 N.ar      1 <0>         0.0000
     23 N3          0.9898   -0.8617    2.0991 N.pl3     1 <0>         0.0000
     24 N4          0.3007    0.9955   -2.0192 N.am      1 <0>         0.0000
     25 O1          1.1472   -1.1212   -2.1699 O.2       1 <0>         0.0000
     26 H1          3.0764    1.5377    5.4277 H         1 <0>         0.0000
     27 H2         -2.1951    1.9806   -0.6395 H         1 <0>         0.0000
     28 H3         -1.1499    2.2885    0.7346 H         1 <0>         0.0000
     29 H4          3.4311    3.5406   -2.3134 H         1 <0>         0.0000
     30 H5          1.7344    3.9798   -2.8232 H         1 <0>         0.0000
     31 H6          2.1559    3.0473   -5.1253 H         1 <0>         0.0000
     32 H7          3.8611    2.6030   -4.6479 H         1 <0>         0.0000
     33 H8         -1.6105    0.0245    1.1609 H         1 <0>         0.0000
     34 H9         -1.9831   -0.3128   -0.5206 H         1 <0>         0.0000
     35 H10         0.8874   -2.4904   -0.2223 H         1 <0>         0.0000
     36 H11        -0.8738   -2.4594   -0.0955 H         1 <0>         0.0000
     37 H12        -0.3798    2.9366   -1.7457 H         1 <0>         0.0000
     38 H13         0.7878    2.4260   -0.5464 H         1 <0>         0.0000
     39 H14        -0.7948   -1.9834    2.2942 H         1 <0>         0.0000
     40 H15         0.6652   -2.9544    2.1417 H         1 <0>         0.0000
     41 H16         2.1652   -0.0481    0.5264 H         1 <0>         0.0000
     42 H17         0.9822    1.0600    1.2283 H         1 <0>         0.0000
     43 H18         2.9833    1.1241   -2.8258 H         1 <0>         0.0000
     44 H19         1.2579    0.1799    8.1296 H         1 <0>         0.0000
     45 H20         2.7076   -0.8137    8.0013 H         1 <0>         0.0000
     46 H21         2.8080    0.9303    7.7327 H         1 <0>         0.0000
     47 H22        -0.1095   -1.7615    7.2885 H         1 <0>         0.0000
     48 H23         0.0036   -2.9975    6.0127 H         1 <0>         0.0000
     49 H24         1.3501   -2.7347    7.1473 H         1 <0>         0.0000
     50 H25         0.8218    0.4506   -3.9506 H         1 <0>         0.0000
     51 H26         0.2172    2.1081   -3.7780 H         1 <0>         0.0000
@<TRIPOS>BOND
     1    1    3 1
     2    1   21 3
     3    2    3 ar
     4    2    4 ar
     5    2   26 1
     6    3    6 ar
     7    4    5 ar
     8    4   18 1
     9    5   19 1
    10    5   22 ar
    11    6   22 ar
    12    6   23 1
    13    7   17 1
    14    7   24 am
    15    7   25 2
    16    8   11 1
    17    8   13 1
    18    8   27 1
    19    8   28 1
    20    9   10 1
    21    9   16 1
    22    9   29 1
    23    9   30 1
    24   10   16 1
    25   10   31 1
    26   10   32 1
    27   11   17 1
    28   11   33 1
    29   11   34 1
    30   12   14 1
    31   12   17 1
    32   12   35 1
    33   12   36 1
    34   13   24 1
    35   13   37 1
    36   13   38 1
    37   14   23 1
    38   14   39 1
    39   14   40 1
    40   15   17 1
    41   15   23 1
    42   15   41 1
    43   15   42 1
    44   16   20 1
    45   16   43 1
    46   18   44 1
    47   18   45 1
    48   18   46 1
    49   19   47 1
    50   19   48 1
    51   19   49 1
    52   20   24 1
    53   20   50 1
    54   20   51 1
