@<TRIPOS>MOLECULE
*****
   20    20     0     0     0
SMALL
NO_CHARGES

@<TRIPOS>ATOM
      1 C1          2.3807    0.9170    4.4272 C.2       1 <0>         0.0000
      2 C2          2.6378    0.5419    5.7366 C.2       1 <0>         0.0000
      3 C3          2.7263   -0.8814    5.7444 C.2       1 <0>         0.0000
      4 C4          2.7757    0.3675    1.3389 C.2       1 <0>         0.0000
      5 C5          2.9436   -1.8185    6.8934 C.3       1 <0>         0.0000
      6 C6          2.6708   -0.0943   -0.0998 C.3       1 <0>         0.0000
      7 C7          1.9454   -0.4451    2.3366 C.3       1 <0>         0.0000
      8 N1          2.4914   -1.3424    4.5113 N.2       1 <0>         0.0000
      9 N2          2.2950   -0.2429    3.7236 N.pl3     1 <0>         0.0000
     10 O1          3.4512    1.3209    1.6787 O.2       1 <0>         0.0000
     11 I1          3.4640    1.8858    7.2494 I         1 <0>         0.0000
     12 H1          2.2713    1.8852    3.9627 H         1 <0>         0.0000
     13 H2          2.1215   -1.7418    7.6120 H         1 <0>         0.0000
     14 H3          3.0043   -2.8474    6.5347 H         1 <0>         0.0000
     15 H4          3.8619   -1.5669    7.4325 H         1 <0>         0.0000
     16 H5          1.6489   -0.3947   -0.3541 H         1 <0>         0.0000
     17 H6          3.0115    0.6949   -0.7714 H         1 <0>         0.0000
     18 H7          3.3103   -0.9750   -0.2354 H         1 <0>         0.0000
     19 H8          2.0560   -1.5143    2.1403 H         1 <0>         0.0000
     20 H9          0.8893   -0.1966    2.1570 H         1 <0>         0.0000
@<TRIPOS>BOND
     1    1    2 2
     2    1    9 1
     3    1   12 1
     4    2    3 1
     5    2   11 1
     6    3    5 1
     7    3    8 2
     8    4    6 1
     9    4    7 1
    10    4   10 2
    11    5   13 1
    12    5   14 1
    13    5   15 1
    14    6   16 1
    15    6   17 1
    16    6   18 1
    17    7    9 1
    18    7   19 1
    19    7   20 1
    20    8    9 1
