@<TRIPOS>MOLECULE
*****
   36    39     0     0     0
SMALL
NO_CHARGES

@<TRIPOS>ATOM
      1 C1          6.0964   -4.2670    1.8480 C.2       1 <0>         0.0000
      2 C2          4.2401   -5.0352    2.4438 C.2       1 <0>         0.0000
      3 C3          1.9068   -3.7915    0.8211 C.2       1 <0>         0.0000
      4 C4          1.8311   -2.7791    2.9015 C.2       1 <0>         0.0000
      5 C5          0.2798   -0.7905   -0.8988 C.3       1 <0>         0.0000
      6 C6          1.7190   -0.2810   -0.6133 C.3       1 <0>         0.0000
      7 C7          6.9858   -2.4752    0.2468 C.3       1 <0>         0.0000
      8 C8          7.2363   -1.9802    1.6395 C.3       1 <0>         0.0000
      9 C9          0.1796   -2.1912   -0.2314 C.3       1 <0>         0.0000
     10 C10         2.5030   -1.5323   -0.1846 C.3       1 <0>         0.0000
     11 C11         7.2344   -3.4807    1.3685 C.3       1 <0>         0.0000
     12 C12         1.4606   -2.3456    0.6123 C.3       1 <0>         0.0000
     13 C13         2.7665   -5.0994    2.7625 C.3       1 <0>         0.0000
     14 N1          4.8490   -3.8909    1.9789 N.2       1 <0>         0.0000
     15 N2          5.0369   -6.0631    2.5993 N.2       1 <0>         0.0000
     16 N3          1.3151   -1.8830    1.9973 N.am      1 <0>         0.0000
     17 N4          2.0687   -3.9731    2.1808 N.am      1 <0>         0.0000
     18 O1          2.1097   -4.6258   -0.0436 O.2       1 <0>         0.0000
     19 O2          2.0315   -2.6271    4.0941 O.2       1 <0>         0.0000
     20 O3          6.2979   -5.5495    2.2022 O.3       1 <0>         0.0000
     21 H1         -0.4695   -0.1001   -0.5019 H         1 <0>         0.0000
     22 H2          0.0986   -0.8686   -1.9743 H         1 <0>         0.0000
     23 H3          2.1717    0.2147   -1.4764 H         1 <0>         0.0000
     24 H4          1.7102    0.4543    0.2004 H         1 <0>         0.0000
     25 H5          5.9716   -2.4285   -0.1357 H         1 <0>         0.0000
     26 H6          7.7717   -2.3728   -0.4950 H         1 <0>         0.0000
     27 H7          8.1969   -1.5301    1.8693 H         1 <0>         0.0000
     28 H8          6.3918   -1.5962    2.2021 H         1 <0>         0.0000
     29 H9         -0.7107   -2.3154    0.3891 H         1 <0>         0.0000
     30 H10         0.1777   -2.9821   -0.9864 H         1 <0>         0.0000
     31 H11         2.7941   -2.1261   -1.0573 H         1 <0>         0.0000
     32 H12         3.4003   -1.3286    0.4060 H         1 <0>         0.0000
     33 H13         8.1833   -4.0052    1.3804 H         1 <0>         0.0000
     34 H14         2.3464   -6.0321    2.3819 H         1 <0>         0.0000
     35 H15         2.6163   -5.0541    3.8434 H         1 <0>         0.0000
     36 H16         1.3336   -0.9029    2.2477 H         1 <0>         0.0000
@<TRIPOS>BOND
     1    1   11 1
     2    1   14 2
     3    1   20 1
     4    2   13 1
     5    2   14 1
     6    2   15 2
     7    3   12 1
     8    3   17 am
     9    3   18 2
    10    4   16 am
    11    4   17 am
    12    4   19 2
    13    5    6 1
    14    5    9 1
    15    5   21 1
    16    5   22 1
    17    6   10 1
    18    6   23 1
    19    6   24 1
    20    7    8 1
    21    7   11 1
    22    7   25 1
    23    7   26 1
    24    8   11 1
    25    8   27 1
    26    8   28 1
    27    9   12 1
    28    9   29 1
    29    9   30 1
    30   10   12 1
    31   10   31 1
    32   10   32 1
    33   11   33 1
    34   12   16 1
    35   13   17 1
    36   13   34 1
    37   13   35 1
    38   15   20 1
    39   16   36 1
