@<TRIPOS>MOLECULE
*****
   23    23     0     0     0
SMALL
NO_CHARGES

@<TRIPOS>ATOM
      1 C1          1.5862   -1.2268   -0.0420 C.ar      1 <0>         0.0000
      2 C2          2.8036   -1.2666    2.0649 C.ar      1 <0>         0.0000
      3 C3          0.4559   -0.7045    0.6029 C.ar      1 <0>         0.0000
      4 C4          1.6736   -0.7471    2.6897 C.ar      1 <0>         0.0000
      5 C5          0.5106   -0.4650    1.9863 C.ar      1 <0>         0.0000
      6 C6          2.7522   -1.5057    0.6881 C.ar      1 <0>         0.0000
      7 C7         -2.4605   -0.4049   -3.3370 C.3       1 <0>         0.0000
      8 C8         -2.2385   -0.2040   -1.8339 C.3       1 <0>         0.0000
      9 C9         -0.8381   -0.6221   -1.4131 C.3       1 <0>         0.0000
     10 O1         -0.7202   -0.3991   -0.0012 O.3       1 <0>         0.0000
     11 F1          1.6985   -0.5079    4.0175 F         1 <0>         0.0000
     12 F2         -0.5634    0.0368    2.6264 F         1 <0>         0.0000
     13 S1          4.2218   -2.1685   -0.0743 S.3       1 <0>         0.0000
     14 H1          1.5567   -1.4145   -1.1081 H         1 <0>         0.0000
     15 H2          3.6887   -1.4719    2.6584 H         1 <0>         0.0000
     16 H3         -1.7498    0.1826   -3.9294 H         1 <0>         0.0000
     17 H4         -2.3449   -1.4567   -3.6224 H         1 <0>         0.0000
     18 H5         -3.4687   -0.0927   -3.6250 H         1 <0>         0.0000
     19 H6         -2.9664   -0.7869   -1.2594 H         1 <0>         0.0000
     20 H7         -2.3875    0.8467   -1.5630 H         1 <0>         0.0000
     21 H8         -0.6664   -1.6845   -1.6339 H         1 <0>         0.0000
     22 H9         -0.0796   -0.0309   -1.9441 H         1 <0>         0.0000
     23 H10         3.7314   -2.2520   -1.3269 H         1 <0>         0.0000
@<TRIPOS>BOND
     1    1    3 ar
     2    1    6 ar
     3    1   14 1
     4    2    4 ar
     5    2    6 ar
     6    2   15 1
     7    3    5 ar
     8    3   10 1
     9    4    5 ar
    10    4   11 1
    11    5   12 1
    12    6   13 1
    13    7    8 1
    14    7   16 1
    15    7   17 1
    16    7   18 1
    17    8    9 1
    18    8   19 1
    19    8   20 1
    20    9   10 1
    21    9   21 1
    22    9   22 1
    23   13   23 1
