@<TRIPOS>MOLECULE
*****
   20    20     0     0     0
SMALL
NO_CHARGES

@<TRIPOS>ATOM
      1 C1          2.5431    1.5466    0.4030 C.2       1 <0>         0.0000
      2 C2          3.3793    1.8847    1.5076 C.2       1 <0>         0.0000
      3 C3          2.5865    0.1760    0.2826 C.2       1 <0>         0.0000
      4 C4          3.8690    0.6897    1.9673 C.2       1 <0>         0.0000
      5 C5          0.4816   -1.0951   -0.1530 C.3       1 <0>         0.0000
      6 C6          1.9019   -0.7777   -0.6480 C.3       1 <0>         0.0000
      7 N1          1.7912   -0.1488   -1.9733 N.3       1 <0>         0.0000
      8 N2          4.7667    0.4048    3.0379 N.pl3     1 <0>         0.0000
      9 O1          5.1611    1.3837    3.6937 O.3       1 <0>         0.0000
     10 O2          5.0881   -0.7723    3.2368 O.2       1 <0>         0.0000
     11 O3          3.4049   -0.3558    1.2347 O.3       1 <0>         0.0000
     12 O4          0.5961   -1.7263    1.1172 O.3       1 <0>         0.0000
     13 H1          1.9780    2.2143   -0.2321 H         1 <0>         0.0000
     14 H2          3.6031    2.8594    1.9169 H         1 <0>         0.0000
     15 H3         -0.0890   -0.1590   -0.0997 H         1 <0>         0.0000
     16 H4         -0.0054   -1.7594   -0.8841 H         1 <0>         0.0000
     17 H5          2.4731   -1.7182   -0.6349 H         1 <0>         0.0000
     18 H6          1.3452   -0.7962   -2.6214 H         1 <0>         0.0000
     19 H7          2.7209    0.0435   -2.3417 H         1 <0>         0.0000
     20 H8         -0.2901   -1.8285    1.4949 H         1 <0>         0.0000
@<TRIPOS>BOND
     1    1    2 1
     2    1    3 2
     3    1   13 1
     4    2    4 2
     5    2   14 1
     6    3    6 1
     7    3   11 1
     8    4    8 1
     9    4   11 1
    10    5    6 1
    11    5   12 1
    12    5   15 1
    13    5   16 1
    14    6    7 1
    15    6   17 1
    16    7   18 1
    17    7   19 1
    18    8    9 1
    19    8   10 2
    20   12   20 1
