@<TRIPOS>MOLECULE
*****
   21    22     0     0     0
SMALL
NO_CHARGES

@<TRIPOS>ATOM
      1 C1          0.9605   -1.9178    3.2468 C.ar      1 <0>         0.0000
      2 C2         -0.2269   -2.2034    2.5730 C.ar      1 <0>         0.0000
      3 C3          1.4958   -0.6303    3.1906 C.ar      1 <0>         0.0000
      4 C4         -0.8641   -1.1787    1.8587 C.ar      1 <0>         0.0000
      5 C5          0.7858    0.3063    2.4365 C.ar      1 <0>         0.0000
      6 C6         -3.1577   -2.3626    1.5112 C.2       1 <0>         0.0000
      7 C7         -2.6696   -0.2563    0.2161 C.3       1 <0>         0.0000
      8 C8         -1.9364   -1.3450   -0.4838 C.3       1 <0>         0.0000
      9 C9         -2.1011   -1.4186    1.0446 C.3       1 <0>         0.0000
     10 N1         -0.3417    0.0599    1.7969 N.ar      1 <0>         0.0000
     11 O1         -4.0674   -2.7800    0.8156 O.2       1 <0>         0.0000
     12 O2         -3.0614   -2.6931    2.8282 O.3       1 <0>         0.0000
     13 Cl1         1.4196    1.9474    2.3125 Cl        1 <0>         0.0000
     14 H1          1.4713   -2.6940    3.8105 H         1 <0>         0.0000
     15 H2         -0.6544   -3.1980    2.6061 H         1 <0>         0.0000
     16 H3          2.4161   -0.3617    3.6969 H         1 <0>         0.0000
     17 H4         -2.1693    0.6924    0.3678 H         1 <0>         0.0000
     18 H5         -3.7497   -0.2348    0.1239 H         1 <0>         0.0000
     19 H6         -2.5058   -2.0703   -1.0548 H         1 <0>         0.0000
     20 H7         -0.9258   -1.1435   -0.8243 H         1 <0>         0.0000
     21 H8         -3.8310   -3.2666    3.0101 H         1 <0>         0.0000
@<TRIPOS>BOND
     1    1    2 ar
     2    1    3 ar
     3    1   14 1
     4    2    4 ar
     5    2   15 1
     6    3    5 ar
     7    3   16 1
     8    4    9 1
     9    4   10 ar
    10    5   10 ar
    11    5   13 1
    12    6    9 1
    13    6   11 2
    14    6   12 1
    15    7    8 1
    16    7    9 1
    17    7   17 1
    18    7   18 1
    19    8    9 1
    20    8   19 1
    21    8   20 1
    22   12   21 1
