@<TRIPOS>MOLECULE
*****
   21    22     0     0     0
SMALL
NO_CHARGES

@<TRIPOS>ATOM
      1 C1          0.4459   -1.4148    3.8362 C.ar      1 <0>         0.0000
      2 C2         -0.6061   -1.7395    2.9798 C.ar      1 <0>         0.0000
      3 C3          1.7299   -1.2385    3.3192 C.ar      1 <0>         0.0000
      4 C4         -0.3432   -1.8922    1.6111 C.ar      1 <0>         0.0000
      5 C5          1.8727   -1.3993    1.9394 C.ar      1 <0>         0.0000
      6 C6         -2.5776   -3.0546    0.9490 C.2       1 <0>         0.0000
      7 C7         -1.7683   -1.0170   -0.3553 C.3       1 <0>         0.0000
      8 C8         -1.0582   -2.2153   -0.8777 C.3       1 <0>         0.0000
      9 C9         -1.4290   -2.1641    0.6124 C.3       1 <0>         0.0000
     10 N1          0.8937   -1.7125    1.1119 N.ar      1 <0>         0.0000
     11 O1         -3.5993   -3.1422    0.2904 O.2       1 <0>         0.0000
     12 O2         -2.3732   -3.8280    2.0504 O.3       1 <0>         0.0000
     13 Cl1         3.4678   -1.1734    1.2223 Cl        1 <0>         0.0000
     14 H1          0.2684   -1.2947    4.9016 H         1 <0>         0.0000
     15 H2         -1.6087   -1.8786    3.3654 H         1 <0>         0.0000
     16 H3          2.5778   -0.9846    3.9453 H         1 <0>         0.0000
     17 H4         -1.1939   -0.1086   -0.2047 H         1 <0>         0.0000
     18 H5         -2.8199   -0.8936   -0.5906 H         1 <0>         0.0000
     19 H6         -1.6271   -2.9184   -1.4755 H         1 <0>         0.0000
     20 H7          0.0033   -2.1423   -1.0813 H         1 <0>         0.0000
     21 H8         -3.1689   -4.3896    2.1261 H         1 <0>         0.0000
@<TRIPOS>BOND
     1    1    2 ar
     2    1    3 ar
     3    1   14 1
     4    2    4 ar
     5    2   15 1
     6    3    5 ar
     7    3   16 1
     8    4    9 1
     9    4   10 ar
    10    5   10 ar
    11    5   13 1
    12    6    9 1
    13    6   11 2
    14    6   12 1
    15    7    8 1
    16    7    9 1
    17    7   17 1
    18    7   18 1
    19    8    9 1
    20    8   19 1
    21    8   20 1
    22   12   21 1
