@<TRIPOS>MOLECULE
*****
   21    22     0     0     0
SMALL
NO_CHARGES

@<TRIPOS>ATOM
      1 C1          1.6549   -2.0114    1.8088 C.ar      1 <0>         0.0000
      2 C2          0.4212   -2.2275    1.1950 C.ar      1 <0>         0.0000
      3 C3          1.7256   -1.2359    2.9670 C.ar      1 <0>         0.0000
      4 C4         -0.7280   -1.6638    1.7674 C.ar      1 <0>         0.0000
      5 C5          0.5206   -0.7116    3.4393 C.ar      1 <0>         0.0000
      6 C6         -2.4971   -3.0409    0.4434 C.2       1 <0>         0.0000
      7 C7         -3.2611   -1.0376    1.7679 C.3       1 <0>         0.0000
      8 C8         -2.6621   -0.4963    0.5183 C.3       1 <0>         0.0000
      9 C9         -2.0800   -1.7833    1.1287 C.3       1 <0>         0.0000
     10 N1         -0.6579   -0.9082    2.8787 N.ar      1 <0>         0.0000
     11 O1         -3.4693   -3.1405   -0.2848 O.2       1 <0>         0.0000
     12 O2         -1.7195   -4.1172    0.7429 O.3       1 <0>         0.0000
     13 Cl1         0.5451    0.2902    4.8901 Cl        1 <0>         0.0000
     14 H1          2.5599   -2.4401    1.3867 H         1 <0>         0.0000
     15 H2          0.3497   -2.8261    0.2950 H         1 <0>         0.0000
     16 H3          2.6616   -1.0398    3.4777 H         1 <0>         0.0000
     17 H4         -3.0311   -0.5502    2.7076 H         1 <0>         0.0000
     18 H5         -4.2217   -1.5345    1.6931 H         1 <0>         0.0000
     19 H6         -3.2050   -0.6197   -0.4125 H         1 <0>         0.0000
     20 H7         -2.0208    0.3758    0.5951 H         1 <0>         0.0000
     21 H8         -2.1270   -4.8719    0.2755 H         1 <0>         0.0000
@<TRIPOS>BOND
     1    1    2 ar
     2    1    3 ar
     3    1   14 1
     4    2    4 ar
     5    2   15 1
     6    3    5 ar
     7    3   16 1
     8    4    9 1
     9    4   10 ar
    10    5   10 ar
    11    5   13 1
    12    6    9 1
    13    6   11 2
    14    6   12 1
    15    7    8 1
    16    7    9 1
    17    7   17 1
    18    7   18 1
    19    8    9 1
    20    8   19 1
    21    8   20 1
    22   12   21 1
