@<TRIPOS>MOLECULE
*****
   15    14     0     0     0
SMALL
NO_CHARGES

@<TRIPOS>ATOM
      1 C1          1.1696    1.0688   -0.1941 C.2       1 <0>         0.0000
      2 C2          0.1625    0.2296   -0.4468 C.2       1 <0>         0.0000
      3 C3         -0.2537   -0.8187    0.5353 C.2       1 <0>         0.0000
      4 O1          0.2783   -0.9797    1.6178 O.2       1 <0>         0.0000
      5 O2         -0.7249    2.7912   -2.2821 O.2       1 <0>         0.0000
      6 O3         -1.2847   -1.5690    0.0903 O.3       1 <0>         0.0000
      7 O4         -2.5337    1.5323   -0.8752 O.3       1 <0>         0.0000
      8 O5         -2.2282    0.9279   -3.3191 O.3       1 <0>         0.0000
      9 O6         -0.5532    0.2326   -1.6449 O.3       1 <0>         0.0000
     10 P1         -1.4381    1.5168   -2.0526 P.3       1 <0>         0.0000
     11 H1          1.4575    1.8327   -0.9082 H         1 <0>         0.0000
     12 H2          1.6921    0.9879    0.7520 H         1 <0>         0.0000
     13 H3         -1.4789   -2.2081    0.8025 H         1 <0>         0.0000
     14 H4         -2.8348    2.4364   -0.6817 H         1 <0>         0.0000
     15 H5         -1.9129    1.3304   -4.1462 H         1 <0>         0.0000
@<TRIPOS>BOND
     1    1    2 2
     2    1   11 1
     3    1   12 1
     4    2    3 1
     5    2    9 1
     6    3    4 2
     7    3    6 1
     8    5   10 2
     9    6   13 1
    10    7   10 1
    11    7   14 1
    12    8   10 1
    13    8   15 1
    14    9   10 1
