@<TRIPOS>MOLECULE
*****
   15    14     0     0     0
SMALL
NO_CHARGES

@<TRIPOS>ATOM
      1 C1          1.1581    1.0831   -0.3743 C.2       1 <0>         0.0000
      2 C2          0.1463    0.2138   -0.4495 C.2       1 <0>         0.0000
      3 C3         -0.1792   -0.8096    0.5901 C.2       1 <0>         0.0000
      4 O1         -1.1122   -1.5804    0.5283 O.2       1 <0>         0.0000
      5 O2         -0.9445    2.6392   -2.3504 O.2       1 <0>         0.0000
      6 O3          0.6995   -0.7822    1.6290 O.3       1 <0>         0.0000
      7 O4         -2.5924    1.5129   -0.6603 O.3       1 <0>         0.0000
      8 O5         -2.5640    0.7250   -3.0684 O.3       1 <0>         0.0000
      9 O6         -0.7130    0.1373   -1.5414 O.3       1 <0>         0.0000
     10 P1         -1.6353    1.3958   -1.9457 P.3       1 <0>         0.0000
     11 H1          1.3307    1.8092   -1.1620 H         1 <0>         0.0000
     12 H2          1.8060    1.0751    0.4936 H         1 <0>         0.0000
     13 H3          0.4036   -1.4777    2.2462 H         1 <0>         0.0000
     14 H4         -2.8982    2.4259   -0.5248 H         1 <0>         0.0000
     15 H5         -2.3178    1.0322   -3.9576 H         1 <0>         0.0000
@<TRIPOS>BOND
     1    1    2 2
     2    1   11 1
     3    1   12 1
     4    2    3 1
     5    2    9 1
     6    3    4 2
     7    3    6 1
     8    5   10 2
     9    6   13 1
    10    7   10 1
    11    7   14 1
    12    8   10 1
    13    8   15 1
    14    9   10 1
