@<TRIPOS>MOLECULE
*****
   15    14     0     0     0
SMALL
NO_CHARGES

@<TRIPOS>ATOM
      1 C1          0.5783    1.5115    0.2279 C.2       1 <0>         0.0000
      2 C2         -0.1082    0.4794   -0.2685 C.2       1 <0>         0.0000
      3 C3          0.0182   -0.8892    0.3138 C.2       1 <0>         0.0000
      4 O1          0.5813   -1.1596    1.3521 O.2       1 <0>         0.0000
      5 O2          0.4876    1.7024   -3.2109 O.2       1 <0>         0.0000
      6 O3         -0.5683   -1.8472   -0.4737 O.3       1 <0>         0.0000
      7 O4         -1.8694    0.6663   -3.6405 O.3       1 <0>         0.0000
      8 O5          0.0762   -0.8610   -3.0923 O.3       1 <0>         0.0000
      9 O6         -1.0007    0.6061   -1.3261 O.3       1 <0>         0.0000
     10 P1         -0.4592    0.6279   -2.8699 P.3       1 <0>         0.0000
     11 H1          0.5033    2.4953   -0.2223 H         1 <0>         0.0000
     12 H2          1.2280    1.3575    1.0818 H         1 <0>         0.0000
     13 H3         -0.4243   -2.6979   -0.0153 H         1 <0>         0.0000
     14 H4         -2.0204    1.5333   -4.0548 H         1 <0>         0.0000
     15 H5         -0.2975   -1.5020   -2.4542 H         1 <0>         0.0000
@<TRIPOS>BOND
     1    1    2 2
     2    1   11 1
     3    1   12 1
     4    2    3 1
     5    2    9 1
     6    3    4 2
     7    3    6 1
     8    5   10 2
     9    6   13 1
    10    7   10 1
    11    7   14 1
    12    8   10 1
    13    8   15 1
    14    9   10 1
