@<TRIPOS>MOLECULE
*****
   21    22     0     0     0
SMALL
NO_CHARGES

@<TRIPOS>ATOM
      1 C1          0.2186   -0.3015    3.5089 C.ar      1 <0>         0.0000
      2 C2         -0.9141   -0.6577    2.7770 C.ar      1 <0>         0.0000
      3 C3          1.4736   -0.7634    3.1099 C.ar      1 <0>         0.0000
      4 C4         -0.7634   -1.4859    1.6559 C.ar      1 <0>         0.0000
      5 C5          1.5070   -1.5688    1.9696 C.ar      1 <0>         0.0000
      6 C6         -3.2661   -2.1321    1.3495 C.2       1 <0>         0.0000
      7 C7         -1.9407   -1.2082   -0.6248 C.3       1 <0>         0.0000
      8 C8         -1.6403   -2.6603   -0.5030 C.3       1 <0>         0.0000
      9 C9         -1.9193   -1.8514    0.7726 C.3       1 <0>         0.0000
     10 N1          0.4482   -1.9233    1.2661 N.ar      1 <0>         0.0000
     11 O1         -4.2933   -2.2124    0.6986 O.2       1 <0>         0.0000
     12 O2         -3.2558   -2.3525    2.6926 O.3       1 <0>         0.0000
     13 Cl1         3.0653   -2.1711    1.4052 Cl        1 <0>         0.0000
     14 H1          0.1278    0.3367    4.3838 H         1 <0>         0.0000
     15 H2         -1.8954   -0.3066    3.0726 H         1 <0>         0.0000
     16 H3          2.3818   -0.5120    3.6460 H         1 <0>         0.0000
     17 H4         -1.1177   -0.5309   -0.8291 H         1 <0>         0.0000
     18 H5         -2.9170   -0.9103   -0.9916 H         1 <0>         0.0000
     19 H6         -2.4158   -3.3617   -0.7895 H         1 <0>         0.0000
     20 H7         -0.6142   -2.9897   -0.6124 H         1 <0>         0.0000
     21 H8         -4.1783   -2.5703    2.9287 H         1 <0>         0.0000
@<TRIPOS>BOND
     1    1    2 ar
     2    1    3 ar
     3    1   14 1
     4    2    4 ar
     5    2   15 1
     6    3    5 ar
     7    3   16 1
     8    4    9 1
     9    4   10 ar
    10    5   10 ar
    11    5   13 1
    12    6    9 1
    13    6   11 2
    14    6   12 1
    15    7    8 1
    16    7    9 1
    17    7   17 1
    18    7   18 1
    19    8    9 1
    20    8   19 1
    21    8   20 1
    22   12   21 1
