@<TRIPOS>MOLECULE
*****
   49    51     0     0     0
SMALL
NO_CHARGES

@<TRIPOS>ATOM
      1 C1          1.6688    8.3035   -6.7102 C.ar      1 <0>         0.0000
      2 C2          0.4764    7.9935   -7.3697 C.ar      1 <0>         0.0000
      3 C3          2.2819    7.3120   -5.9366 C.ar      1 <0>         0.0000
      4 C4          0.0536    3.7719   -2.1441 C.ar      1 <0>         0.0000
      5 C5          1.4829    1.8645   -2.4467 C.ar      1 <0>         0.0000
      6 C6          0.0304    3.9710   -3.5290 C.ar      1 <0>         0.0000
      7 C7          1.4640    2.0645   -3.8261 C.ar      1 <0>         0.0000
      8 C8         -0.0949    6.7233   -7.2685 C.ar      1 <0>         0.0000
      9 C9          1.7217    6.0405   -5.8203 C.ar      1 <0>         0.0000
     10 C10         0.7829    2.7192   -1.5741 C.ar      1 <0>         0.0000
     11 C11         0.7362    3.1249   -4.3863 C.ar      1 <0>         0.0000
     12 C12         0.5183    5.7164   -6.4897 C.ar      1 <0>         0.0000
     13 C13         2.7493    4.2105    0.4107 C.2       1 <0>         0.0000
     14 C14        -0.1871    2.7004    2.2134 C.3       1 <0>         0.0000
     15 C15         1.1943    2.9028    2.8488 C.3       1 <0>         0.0000
     16 C16        -0.2181    3.1855    0.7572 C.3       1 <0>         0.0000
     17 C17         2.3121    2.2833    1.9973 C.3       1 <0>         0.0000
     18 C18         0.8623    2.4780   -0.0743 C.3       1 <0>         0.0000
     19 C19         2.2765    2.7534    0.5321 C.3       1 <0>         0.0000
     20 C20        -1.3537    4.1731   -6.9484 C.3       1 <0>         0.0000
     21 C21         0.7386    3.3308   -5.8965 C.3       1 <0>         0.0000
     22 N1         -0.0530    4.4512   -6.3657 N.pl3     1 <0>         0.0000
     23 O1          3.0820    4.8983    1.3514 O.2       1 <0>         0.0000
     24 O2          2.8463    4.7151   -0.8489 O.3       1 <0>         0.0000
     25 H1          2.1077    9.2936   -6.7923 H         1 <0>         0.0000
     26 H2         -0.0186    8.7452   -7.9801 H         1 <0>         0.0000
     27 H3          3.2030    7.5306   -5.4019 H         1 <0>         0.0000
     28 H4         -0.4879    4.4635   -1.5068 H         1 <0>         0.0000
     29 H5          2.0501    1.0308   -2.0368 H         1 <0>         0.0000
     30 H6         -0.5270    4.8030   -3.9484 H         1 <0>         0.0000
     31 H7          2.0199    1.3885   -4.4738 H         1 <0>         0.0000
     32 H8         -1.0106    6.5165   -7.8108 H         1 <0>         0.0000
     33 H9          2.2071    5.3119   -5.1806 H         1 <0>         0.0000
     34 H10        -0.4539    1.6345    2.2376 H         1 <0>         0.0000
     35 H11        -0.9508    3.2271    2.7968 H         1 <0>         0.0000
     36 H12         1.3925    3.9718    2.9680 H         1 <0>         0.0000
     37 H13         1.2139    2.4606    3.8516 H         1 <0>         0.0000
     38 H14        -1.2035    2.9945    0.3175 H         1 <0>         0.0000
     39 H15        -0.0629    4.2718    0.7324 H         1 <0>         0.0000
     40 H16         3.2868    2.5190    2.4323 H         1 <0>         0.0000
     41 H17         2.2105    1.1899    1.9987 H         1 <0>         0.0000
     42 H18         0.7134    1.3986    0.0665 H         1 <0>         0.0000
     43 H19         3.0033    2.1639   -0.0430 H         1 <0>         0.0000
     44 H20        -1.7115    3.2100   -6.5791 H         1 <0>         0.0000
     45 H21        -1.3313    4.1352   -8.0489 H         1 <0>         0.0000
     46 H22        -2.0856    4.9306   -6.6476 H         1 <0>         0.0000
     47 H23         1.7743    3.4391   -6.2419 H         1 <0>         0.0000
     48 H24         0.3636    2.4189   -6.3742 H         1 <0>         0.0000
     49 H25         2.4669    4.0886   -1.4937 H         1 <0>         0.0000
@<TRIPOS>BOND
     1    1    3 ar
     2    1    2 ar
     3    1   25 1
     4    2    8 ar
     5    2   26 1
     6    3    9 ar
     7    3   27 1
     8    4    6 ar
     9    4   10 ar
    10    4   28 1
    11    5    7 ar
    12    5   10 ar
    13    5   29 1
    14    6   11 ar
    15    6   30 1
    16    7   11 ar
    17    7   31 1
    18    8   12 ar
    19    8   32 1
    20    9   12 ar
    21    9   33 1
    22   10   18 1
    23   11   21 1
    24   12   22 1
    25   13   19 1
    26   13   23 2
    27   13   24 1
    28   14   15 1
    29   14   16 1
    30   14   34 1
    31   14   35 1
    32   15   17 1
    33   15   36 1
    34   15   37 1
    35   16   18 1
    36   16   38 1
    37   16   39 1
    38   17   19 1
    39   17   40 1
    40   17   41 1
    41   18   19 1
    42   18   42 1
    43   19   43 1
    44   20   22 1
    45   20   44 1
    46   20   45 1
    47   20   46 1
    48   21   22 1
    49   21   47 1
    50   21   48 1
    51   24   49 1
