@<TRIPOS>MOLECULE
*****
   21    22     0     0     0
SMALL
NO_CHARGES

@<TRIPOS>ATOM
      1 C1          1.6713   -1.9510    2.2218 C.ar      1 <0>         0.0000
      2 C2          0.4952   -2.3137    1.5651 C.ar      1 <0>         0.0000
      3 C3          1.7228   -0.7564    2.9410 C.ar      1 <0>         0.0000
      4 C4         -0.6186   -1.4667    1.6531 C.ar      1 <0>         0.0000
      5 C5          0.5597    0.0164    2.9472 C.ar      1 <0>         0.0000
      6 C6         -2.3978   -3.1329    0.7324 C.2       1 <0>         0.0000
      7 C7         -3.0335   -0.7115    1.0151 C.3       1 <0>         0.0000
      8 C8         -2.2350   -0.7794   -0.2379 C.3       1 <0>         0.0000
      9 C9         -1.8958   -1.7401    0.9154 C.3       1 <0>         0.0000
     10 N1         -0.5650   -0.3098    2.3390 N.ar      1 <0>         0.0000
     11 O1         -3.2848   -3.4507   -0.0406 O.2       1 <0>         0.0000
     12 O2         -1.8140   -4.0446    1.5576 O.3       1 <0>         0.0000
     13 Cl1         0.5653    1.5460    3.8247 Cl        1 <0>         0.0000
     14 H1          2.5471   -2.5925    2.1716 H         1 <0>         0.0000
     15 H2          0.4403   -3.2374    1.0022 H         1 <0>         0.0000
     16 H3          2.6145   -0.4329    3.4660 H         1 <0>         0.0000
     17 H4         -2.8466    0.1018    1.7059 H         1 <0>         0.0000
     18 H5         -4.0364   -1.1230    0.9979 H         1 <0>         0.0000
     19 H6         -2.6829   -1.2347   -1.1144 H         1 <0>         0.0000
     20 H7         -1.4979   -0.0031   -0.4158 H         1 <0>         0.0000
     21 H8         -2.2646   -4.8910    1.3714 H         1 <0>         0.0000
@<TRIPOS>BOND
     1    1    2 ar
     2    1    3 ar
     3    1   14 1
     4    2    4 ar
     5    2   15 1
     6    3    5 ar
     7    3   16 1
     8    4    9 1
     9    4   10 ar
    10    5   10 ar
    11    5   13 1
    12    6    9 1
    13    6   11 2
    14    6   12 1
    15    7    8 1
    16    7    9 1
    17    7   17 1
    18    7   18 1
    19    8    9 1
    20    8   19 1
    21    8   20 1
    22   12   21 1
