@<TRIPOS>MOLECULE
*****
   15    14     0     0     0
SMALL
NO_CHARGES

@<TRIPOS>ATOM
      1 C1          0.3965    1.2274    0.8231 C.2       1 <0>         0.0000
      2 C2         -0.1696    0.3078    0.0356 C.2       1 <0>         0.0000
      3 C3          0.2233   -1.1308    0.0365 C.2       1 <0>         0.0000
      4 O1         -0.2787   -1.9756   -0.6937 O.2       1 <0>         0.0000
      5 O2         -3.0779   -0.3299    0.4884 O.2       1 <0>         0.0000
      6 O3          1.1947   -1.4286    0.9198 O.3       1 <0>         0.0000
      7 O4         -2.5868   -1.1171   -2.0037 O.3       1 <0>         0.0000
      8 O5         -3.4752    1.1298   -1.6516 O.3       1 <0>         0.0000
      9 O6         -1.1169    0.6562   -0.9050 O.3       1 <0>         0.0000
     10 P1         -2.6329    0.0073   -0.8785 P.3       1 <0>         0.0000
     11 H1          0.0728    2.2620    0.7763 H         1 <0>         0.0000
     12 H2          1.1903    0.9510    1.5059 H         1 <0>         0.0000
     13 H3          1.3562   -2.3887    0.8427 H         1 <0>         0.0000
     14 H4         -1.8327   -1.7211   -1.8226 H         1 <0>         0.0000
     15 H5         -4.0293    1.6318   -1.0302 H         1 <0>         0.0000
@<TRIPOS>BOND
     1    1    2 2
     2    1   11 1
     3    1   12 1
     4    2    3 1
     5    2    9 1
     6    3    4 2
     7    3    6 1
     8    5   10 2
     9    6   13 1
    10    7   10 1
    11    7   14 1
    12    8   10 1
    13    8   15 1
    14    9   10 1
