@<TRIPOS>MOLECULE
*****
   15    14     0     0     0
SMALL
NO_CHARGES

@<TRIPOS>ATOM
      1 C1          1.0592    1.0044   -0.0238 C.2       1 <0>         0.0000
      2 C2          0.0465    0.1445   -0.1693 C.2       1 <0>         0.0000
      3 C3         -0.1344   -1.0678    0.6823 C.2       1 <0>         0.0000
      4 O1         -0.8897   -1.9908    0.4062 O.2       1 <0>         0.0000
      5 O2         -2.1834    0.0786   -3.3280 O.2       1 <0>         0.0000
      6 O3          0.6257   -1.0641    1.7940 O.3       1 <0>         0.0000
      7 O4         -0.6916   -1.8831   -2.3277 O.3       1 <0>         0.0000
      8 O5          0.4165    0.1081   -3.2705 O.3       1 <0>         0.0000
      9 O6         -0.9551    0.3364   -1.1009 O.3       1 <0>         0.0000
     10 P1         -0.9795   -0.3396   -2.5937 P.3       1 <0>         0.0000
     11 H1          1.1576    1.8546   -0.6903 H         1 <0>         0.0000
     12 H2          1.7929    0.8593    0.7599 H         1 <0>         0.0000
     13 H3          0.4595   -1.9123    2.2494 H         1 <0>         0.0000
     14 H4         -1.0193   -2.1828   -1.4480 H         1 <0>         0.0000
     15 H5          0.2487    0.7198   -4.0079 H         1 <0>         0.0000
@<TRIPOS>BOND
     1    1    2 2
     2    1   11 1
     3    1   12 1
     4    2    3 1
     5    2    9 1
     6    3    4 2
     7    3    6 1
     8    5   10 2
     9    6   13 1
    10    7   10 1
    11    7   14 1
    12    8   10 1
    13    8   15 1
    14    9   10 1
