@<TRIPOS>MOLECULE
*****
   16    16     0     0     0
SMALL
NO_CHARGES

@<TRIPOS>ATOM
      1 C1          2.8811   -2.7052   -0.0780 C.1       1 <0>         0.0000
      2 C2          6.3139   -3.4151   -0.9070 C.ar      1 <0>         0.0000
      3 C3          7.6416   -3.4376   -0.4923 C.ar      1 <0>         0.0000
      4 C4          5.6390   -2.5936    1.2690 C.ar      1 <0>         0.0000
      5 C5          5.3036   -2.9918   -0.0283 C.ar      1 <0>         0.0000
      6 C6          6.9752   -2.5995    1.6752 C.ar      1 <0>         0.0000
      7 C7          7.9793   -3.0262    0.7952 C.ar      1 <0>         0.0000
      8 N1          3.9862   -2.9900   -0.4918 N.2       1 <0>         0.0000
      9 N2          7.2756   -2.1428    3.0415 N.pl3     1 <0>         0.0000
     10 O1          6.3479   -2.1728    3.8583 O.3       1 <0>         0.0000
     11 O2          1.7627   -2.4649    0.2023 O.2       1 <0>         0.0000
     12 O3          8.4172   -1.7463    3.2787 O.2       1 <0>         0.0000
     13 F1          9.2652   -3.0876    1.1624 F         1 <0>         0.0000
     14 H1          6.0437   -3.7278   -1.9104 H         1 <0>         0.0000
     15 H2          8.4335   -3.7749   -1.1532 H         1 <0>         0.0000
     16 H3          4.8836   -2.2736    1.9778 H         1 <0>         0.0000
@<TRIPOS>BOND
     1    1    8 2
     2    1   11 2
     3    2    3 ar
     4    2    5 ar
     5    2   14 1
     6    3    7 ar
     7    3   15 1
     8    4    5 ar
     9    4    6 ar
    10    4   16 1
    11    5    8 1
    12    6    7 ar
    13    6    9 1
    14    7   13 1
    15    9   10 1
    16    9   12 2
