@<TRIPOS>MOLECULE
*****
   28    29     0     0     0
SMALL
NO_CHARGES

@<TRIPOS>ATOM
      1 C1         -3.1207   -1.3487   -3.7373 C.ar      1 <0>         0.0000
      2 C2         -1.9531   -2.0796   -3.5032 C.ar      1 <0>         0.0000
      3 C3         -3.7387   -0.6726   -2.6798 C.ar      1 <0>         0.0000
      4 C4         -1.4062   -2.1338   -2.2172 C.ar      1 <0>         0.0000
      5 C5         -3.1901   -0.7287   -1.3967 C.ar      1 <0>         0.0000
      6 C6         -2.0173   -1.4604   -1.1517 C.ar      1 <0>         0.0000
      7 C7         -2.3626   -2.1921    1.2536 C.3       1 <0>         0.0000
      8 C8         -0.9792   -0.1411    0.7514 C.3       1 <0>         0.0000
      9 C9         -1.7495   -2.2708    2.6469 C.3       1 <0>         0.0000
     10 C10        -0.3608   -0.2113    2.1428 C.3       1 <0>         0.0000
     11 C11        -1.4110   -1.5293    0.2374 C.3       1 <0>         0.0000
     12 N1         -1.3327   -0.8806    3.1031 N.4       1 <0>         0.0000
     13 H1         -3.5470   -1.3052   -4.7354 H         1 <0>         0.0000
     14 H2         -1.4674   -2.6072   -4.3191 H         1 <0>         0.0000
     15 H3         -4.6468   -0.1025   -2.8552 H         1 <0>         0.0000
     16 H4         -0.4967   -2.7057   -2.0452 H         1 <0>         0.0000
     17 H5         -3.6886   -0.1948   -0.5896 H         1 <0>         0.0000
     18 H6         -2.6064   -3.2093    0.9342 H         1 <0>         0.0000
     19 H7         -3.3136   -1.6475    1.2984 H         1 <0>         0.0000
     20 H8         -1.8339    0.5460    0.7609 H         1 <0>         0.0000
     21 H9         -0.2400    0.2980    0.0755 H         1 <0>         0.0000
     22 H10        -2.4447   -2.6587    3.3947 H         1 <0>         0.0000
     23 H11        -0.8398   -2.8762    2.6616 H         1 <0>         0.0000
     24 H12         0.5450   -0.8224    2.1592 H         1 <0>         0.0000
     25 H13        -0.1304    0.7737    2.5546 H         1 <0>         0.0000
     26 H14        -0.5095   -2.1524    0.1761 H         1 <0>         0.0000
     27 H15        -0.9198   -0.9294    4.0413 H         1 <0>         0.0000
     28 H16        -2.1719   -0.2945    3.1858 H         1 <0>         0.0000
@<TRIPOS>BOND
     1    1    3 ar
     2    1    2 ar
     3    1   13 1
     4    2    4 ar
     5    2   14 1
     6    3    5 ar
     7    3   15 1
     8    4    6 ar
     9    4   16 1
    10    5    6 ar
    11    5   17 1
    12    6   11 1
    13    7    9 1
    14    7   11 1
    15    7   18 1
    16    7   19 1
    17    8   10 1
    18    8   11 1
    19    8   20 1
    20    8   21 1
    21    9   12 1
    22    9   22 1
    23    9   23 1
    24   10   12 1
    25   10   24 1
    26   10   25 1
    27   11   26 1
    28   12   27 1
    29   12   28 1
