@<TRIPOS>MOLECULE
*****
   25    26     0     0     0
SMALL
NO_CHARGES

@<TRIPOS>ATOM
      1 C1         -3.9382    3.4325    1.1148 C.ar      1 <0>         0.0000
      2 C2         -4.5482    3.4307    2.3773 C.ar      1 <0>         0.0000
      3 C3          1.5911   -2.1922    0.5213 C.ar      1 <0>         0.0000
      4 C4          3.0193   -0.3294    1.2151 C.ar      1 <0>         0.0000
      5 C5          0.5468   -1.6739    1.2872 C.ar      1 <0>         0.0000
      6 C6          1.9724    0.1856    1.9798 C.ar      1 <0>         0.0000
      7 C7         -2.8100    2.6460    0.9020 C.ar      1 <0>         0.0000
      8 C8         -3.9923    2.6328    3.3753 C.ar      1 <0>         0.0000
      9 C9          2.8039   -1.5061    0.5003 C.ar      1 <0>         0.0000
     10 C10         0.7509   -0.4914    2.0020 C.ar      1 <0>         0.0000
     11 C11        -2.3502    1.8888    1.9881 C.ar      1 <0>         0.0000
     12 N1         -2.9041    1.8682    3.1857 N.ar      1 <0>         0.0000
     13 O1         -1.5195   -0.9110    3.2975 O.2       1 <0>         0.0000
     14 O2         -0.0298    1.0360    4.0186 O.2       1 <0>         0.0000
     15 O3         -1.2253    1.1136    1.7512 O.3       1 <0>         0.0000
     16 F1          3.8175   -2.0071   -0.2411 F         1 <0>         0.0000
     17 S1         -0.5798    0.1584    2.9964 S.o2      1 <0>         0.0000
     18 H1         -4.3374    4.0396    0.3067 H         1 <0>         0.0000
     19 H2         -5.4292    4.0311    2.5810 H         1 <0>         0.0000
     20 H3          1.4795   -3.1100   -0.0471 H         1 <0>         0.0000
     21 H4          3.9868    0.1603    1.1710 H         1 <0>         0.0000
     22 H5         -0.4098   -2.1833    1.3422 H         1 <0>         0.0000
     23 H6          2.1013    1.0921    2.5621 H         1 <0>         0.0000
     24 H7         -2.2952    2.6061   -0.0521 H         1 <0>         0.0000
     25 H8         -4.4279    2.5963    4.3717 H         1 <0>         0.0000
@<TRIPOS>BOND
     1    1    2 ar
     2    1    7 ar
     3    1   18 1
     4    2    8 ar
     5    2   19 1
     6    3    5 ar
     7    3    9 ar
     8    3   20 1
     9    4    6 ar
    10    4    9 ar
    11    4   21 1
    12    5   10 ar
    13    5   22 1
    14    6   10 ar
    15    6   23 1
    16    7   11 ar
    17    7   24 1
    18    8   12 ar
    19    8   25 1
    20    9   16 1
    21   10   17 1
    22   11   12 ar
    23   11   15 1
    24   13   17 2
    25   14   17 2
    26   15   17 1
