@<TRIPOS>MOLECULE
*****
   15    14     0     0     0
SMALL
NO_CHARGES

@<TRIPOS>ATOM
      1 C1          0.6604    1.4608    0.2180 C.2       1 <0>         0.0000
      2 C2         -0.0604    0.4709   -0.3134 C.2       1 <0>         0.0000
      3 C3          0.0331   -0.9689    0.0793 C.2       1 <0>         0.0000
      4 O1         -0.5856   -1.8629   -0.4553 O.2       1 <0>         0.0000
      5 O2         -3.2187    0.6154    0.0549 O.2       1 <0>         0.0000
      6 O3          0.9041   -1.1656    1.1041 O.3       1 <0>         0.0000
      7 O4         -3.1098    1.0406   -2.4990 O.3       1 <0>         0.0000
      8 O5         -2.1747    2.8053   -0.8699 O.3       1 <0>         0.0000
      9 O6         -0.9545    0.6868   -1.3582 O.3       1 <0>         0.0000
     10 P1         -2.4560    1.2146   -1.0491 P.3       1 <0>         0.0000
     11 H1          0.5385    2.4818   -0.1290 H         1 <0>         0.0000
     12 H2          1.3728    1.2475    1.0056 H         1 <0>         0.0000
     13 H3          0.8927   -2.1245    1.2859 H         1 <0>         0.0000
     14 H4         -2.5059    1.2429   -3.2346 H         1 <0>         0.0000
     15 H5         -2.7967    3.1928   -0.2299 H         1 <0>         0.0000
@<TRIPOS>BOND
     1    1    2 2
     2    1   11 1
     3    1   12 1
     4    2    3 1
     5    2    9 1
     6    3    4 2
     7    3    6 1
     8    5   10 2
     9    6   13 1
    10    7   10 1
    11    7   14 1
    12    8   10 1
    13    8   15 1
    14    9   10 1
