@<TRIPOS>MOLECULE
*****
   15    14     0     0     0
SMALL
NO_CHARGES

@<TRIPOS>ATOM
      1 C1          0.4100    1.4437    0.9392 C.2       1 <0>         0.0000
      2 C2         -0.0460    0.5934    0.0211 C.2       1 <0>         0.0000
      3 C3          0.5908   -0.7648   -0.2039 C.2       1 <0>         0.0000
      4 O1          1.7601   -0.9396    0.0674 O.2       1 <0>         0.0000
      5 O2         -2.7710   -0.8897   -0.4020 O.2       1 <0>         0.0000
      6 O3         -0.1750   -1.7433   -0.7107 O.3       1 <0>         0.0000
      7 O4         -3.3337    1.2296   -1.8851 O.3       1 <0>         0.0000
      8 O5         -3.1879    1.4541    0.5837 O.3       1 <0>         0.0000
      9 O6         -1.0805    0.9966   -0.8543 O.3       1 <0>         0.0000
     10 P1         -2.6182    0.5671   -0.6135 P.3       1 <0>         0.0000
     11 H1         -0.0413    2.4205    1.0789 H         1 <0>         0.0000
     12 H2          1.2567    1.1557    1.5514 H         1 <0>         0.0000
     13 H3         -1.1424   -1.5472   -0.6421 H         1 <0>         0.0000
     14 H4         -3.2442    0.7102   -2.7036 H         1 <0>         0.0000
     15 H5         -3.3203    2.3932    0.3652 H         1 <0>         0.0000
@<TRIPOS>BOND
     1    1    2 2
     2    1   11 1
     3    1   12 1
     4    2    3 1
     5    2    9 1
     6    3    4 2
     7    3    6 1
     8    5   10 2
     9    6   13 1
    10    7   10 1
    11    7   14 1
    12    8   10 1
    13    8   15 1
    14    9   10 1
