@<TRIPOS>MOLECULE
*****
   21    22     0     0     0
SMALL
NO_CHARGES

@<TRIPOS>ATOM
      1 C1          0.7849   -1.6874    3.3536 C.ar      1 <0>         0.0000
      2 C2         -0.3434   -2.0533    2.6196 C.ar      1 <0>         0.0000
      3 C3          1.6973   -0.7797    2.8144 C.ar      1 <0>         0.0000
      4 C4         -0.5291   -1.5035    1.3433 C.ar      1 <0>         0.0000
      5 C5          1.4034   -0.2838    1.5425 C.ar      1 <0>         0.0000
      6 C6         -2.3917   -3.1301    0.5249 C.2       1 <0>         0.0000
      7 C7         -2.7290   -0.6090    0.3311 C.3       1 <0>         0.0000
      8 C8         -1.9093   -1.0585   -0.8260 C.3       1 <0>         0.0000
      9 C9         -1.7515   -1.7827    0.5199 C.3       1 <0>         0.0000
     10 N1          0.3464   -0.6206    0.8280 N.ar      1 <0>         0.0000
     11 O1         -3.4974   -3.3703    0.0719 O.2       1 <0>         0.0000
     12 O2         -1.6047   -4.1148    1.0388 O.3       1 <0>         0.0000
     13 Cl1         2.5090    0.8799    0.8125 Cl        1 <0>         0.0000
     14 H1          0.9531   -2.1027    4.3437 H         1 <0>         0.0000
     15 H2         -1.0613   -2.7559    3.0250 H         1 <0>         0.0000
     16 H3          2.5872   -0.4650    3.3478 H         1 <0>         0.0000
     17 H4         -2.4418    0.3087    0.8341 H         1 <0>         0.0000
     18 H5         -3.7827   -0.8652    0.3510 H         1 <0>         0.0000
     19 H6         -2.4044   -1.6262   -1.6057 H         1 <0>         0.0000
     20 H7         -1.0545   -0.4612   -1.1194 H         1 <0>         0.0000
     21 H8         -2.1182   -4.9394    0.9361 H         1 <0>         0.0000
@<TRIPOS>BOND
     1    1    2 ar
     2    1    3 ar
     3    1   14 1
     4    2    4 ar
     5    2   15 1
     6    3    5 ar
     7    3   16 1
     8    4    9 1
     9    4   10 ar
    10    5   10 ar
    11    5   13 1
    12    6    9 1
    13    6   11 2
    14    6   12 1
    15    7    8 1
    16    7    9 1
    17    7   17 1
    18    7   18 1
    19    8    9 1
    20    8   19 1
    21    8   20 1
    22   12   21 1
