@<TRIPOS>MOLECULE
*****
   25    26     0     0     0
SMALL
NO_CHARGES

@<TRIPOS>ATOM
      1 C1         -0.8500    3.9711   -0.9811 C.ar      1 <0>         0.0000
      2 C2          0.5010    4.1816   -0.6760 C.ar      1 <0>         0.0000
      3 C3          1.7635   -2.9099    0.4986 C.ar      1 <0>         0.0000
      4 C4          3.0206   -1.1462    1.6389 C.ar      1 <0>         0.0000
      5 C5          0.5746   -2.2312    0.7669 C.ar      1 <0>         0.0000
      6 C6          1.8321   -0.4652    1.8967 C.ar      1 <0>         0.0000
      7 C7         -1.4521    2.7736   -0.6037 C.ar      1 <0>         0.0000
      8 C8          1.1903    3.1725   -0.0054 C.ar      1 <0>         0.0000
      9 C9          2.9606   -2.3511    0.9411 C.ar      1 <0>         0.0000
     10 C10         0.6275   -1.0168    1.4554 C.ar      1 <0>         0.0000
     11 C11        -0.6503    1.8346    0.0549 C.ar      1 <0>         0.0000
     12 N1          0.6276    2.0061    0.3514 N.ar      1 <0>         0.0000
     13 O1         -1.9728   -1.1521    1.8745 O.2       1 <0>         0.0000
     14 O2         -0.6904    0.8277    2.8454 O.2       1 <0>         0.0000
     15 O3         -1.2565    0.6253    0.3650 O.3       1 <0>         0.0000
     16 F1          4.1146   -3.0091    0.6865 F         1 <0>         0.0000
     17 S1         -0.9009   -0.1724    1.8093 S.o2      1 <0>         0.0000
     18 H1         -1.4283    4.7333   -1.4963 H         1 <0>         0.0000
     19 H2          1.0055    5.1038   -0.9466 H         1 <0>         0.0000
     20 H3          1.7715   -3.8559   -0.0330 H         1 <0>         0.0000
     21 H4          3.9803   -0.7593    1.9663 H         1 <0>         0.0000
     22 H5         -0.3809   -2.6415    0.4572 H         1 <0>         0.0000
     23 H6          1.8305    0.4808    2.4248 H         1 <0>         0.0000
     24 H7         -2.4966    2.5547   -0.7976 H         1 <0>         0.0000
     25 H8          2.2397    3.2942    0.2564 H         1 <0>         0.0000
@<TRIPOS>BOND
     1    1    2 ar
     2    1    7 ar
     3    1   18 1
     4    2    8 ar
     5    2   19 1
     6    3    5 ar
     7    3    9 ar
     8    3   20 1
     9    4    6 ar
    10    4    9 ar
    11    4   21 1
    12    5   10 ar
    13    5   22 1
    14    6   10 ar
    15    6   23 1
    16    7   11 ar
    17    7   24 1
    18    8   12 ar
    19    8   25 1
    20    9   16 1
    21   10   17 1
    22   11   12 ar
    23   11   15 1
    24   13   17 2
    25   14   17 2
    26   15   17 1
