@<TRIPOS>MOLECULE
*****
   19    20     0     0     0
SMALL
NO_CHARGES

@<TRIPOS>ATOM
      1 C1          1.9511   -0.9524   -0.1154 C.ar      1 <0>         0.0000
      2 C2          0.8376   -0.4023    0.5307 C.ar      1 <0>         0.0000
      3 C3          2.9557   -1.5600    0.6347 C.ar      1 <0>         0.0000
      4 C4          0.7616   -0.4776    1.9242 C.ar      1 <0>         0.0000
      5 C5          2.8914   -1.6428    2.0435 C.ar      1 <0>         0.0000
      6 C6          1.7621   -1.0851    2.7002 C.ar      1 <0>         0.0000
      7 C7          4.0039   -2.3045    2.7395 C.2       1 <0>         0.0000
      8 C8          1.5945   -1.1194    4.2010 C.3       1 <0>         0.0000
      9 N1          5.0661   -2.8245    2.0797 N.2       1 <0>         0.0000
     10 N2          4.1242   -2.4824    4.0753 N.2       1 <0>         0.0000
     11 N3          5.8529   -3.3314    3.0388 N.2       1 <0>         0.0000
     12 N4          5.2919   -3.1281    4.2326 N.2       1 <0>         0.0000
     13 H1          2.0356   -0.9076   -1.2000 H         1 <0>         0.0000
     14 H2          0.0425    0.0765   -0.0380 H         1 <0>         0.0000
     15 H3          3.8262   -1.9918    0.1511 H         1 <0>         0.0000
     16 H4         -0.1021   -0.0516    2.4336 H         1 <0>         0.0000
     17 H5          1.6041   -2.1453    4.5795 H         1 <0>         0.0000
     18 H6          2.4289   -0.6250    4.7062 H         1 <0>         0.0000
     19 H7          0.6546   -0.6334    4.4889 H         1 <0>         0.0000
@<TRIPOS>BOND
     1    1    2 ar
     2    1    3 ar
     3    1   13 1
     4    2    4 ar
     5    2   14 1
     6    3    5 ar
     7    3   15 1
     8    4    6 ar
     9    4   16 1
    10    5    6 ar
    11    5    7 1
    12    6    8 1
    13    7    9 1
    14    7   10 2
    15    8   17 1
    16    8   18 1
    17    8   19 1
    18    9   11 1
    19   10   12 1
    20   11   12 2
