@<TRIPOS>MOLECULE
*****
   55    57     0     0     0
SMALL
NO_CHARGES

@<TRIPOS>ATOM
      1 C1         -1.0118    8.3682    6.8771 C.ar      1 <0>         0.0000
      2 C2         -2.7007    9.9198    7.6630 C.ar      1 <0>         0.0000
      3 C3         -0.0139    9.2661    7.2756 C.ar      1 <0>         0.0000
      4 C4         -1.7084   10.8116    8.0585 C.ar      1 <0>         0.0000
      5 C5         -2.3624    8.6918    7.0700 C.ar      1 <0>         0.0000
      6 C6         -0.3637   10.4790    7.8621 C.ar      1 <0>         0.0000
      7 C7          0.6128    0.6619    0.7539 C.3       1 <0>         0.0000
      8 C8         -0.0047    0.0530    2.0186 C.3       1 <0>         0.0000
      9 C9          0.6642    2.1895    0.8743 C.3       1 <0>         0.0000
     10 C10        -1.3555    0.6984    2.3355 C.3       1 <0>         0.0000
     11 C11        -0.7129    2.7519    1.2327 C.3       1 <0>         0.0000
     12 C12        -1.5548    3.7761    5.0778 C.3       1 <0>         0.0000
     13 C13        -2.1815    4.0664    3.7134 C.3       1 <0>         0.0000
     14 C14        -4.0999    4.5352    5.1227 C.3       1 <0>         0.0000
     15 C15        -5.3461    3.7145    4.7750 C.3       1 <0>         0.0000
     16 C16        -5.2797    6.7769    4.8722 C.3       1 <0>         0.0000
     17 C17        -5.1984    5.6775    7.1380 C.3       1 <0>         0.0000
     18 C18        -2.4666    2.7853    2.9150 C.3       1 <0>         0.0000
     19 C19        -3.1119    6.6263    6.1151 C.3       1 <0>         0.0000
     20 C20        -4.4353    5.8979    5.8200 C.3       1 <0>         0.0000
     21 N1         -1.2252    2.1540    2.4717 N.3       1 <0>         0.0000
     22 O1         -3.3697    4.8363    3.9271 O.3       1 <0>         0.0000
     23 O2         -3.4094    7.8908    6.7200 O.3       1 <0>         0.0000
     24 S1         -2.9757    3.4402    6.1706 S.3       1 <0>         0.0000
     25 Cl1         0.8935   11.6043    8.3626 Cl        1 <0>         0.0000
     26 H1         -0.7194    7.4288    6.4236 H         1 <0>         0.0000
     27 H2         -3.7504   10.1581    7.8069 H         1 <0>         0.0000
     28 H3          1.0319    9.0153    7.1273 H         1 <0>         0.0000
     29 H4         -1.9737   11.7592    8.5168 H         1 <0>         0.0000
     30 H5          0.0019    0.3874   -0.1171 H         1 <0>         0.0000
     31 H6          1.6148    0.2542    0.5790 H         1 <0>         0.0000
     32 H7         -0.1372   -1.0290    1.9037 H         1 <0>         0.0000
     33 H8          0.6681    0.2124    2.8702 H         1 <0>         0.0000
     34 H9          1.3766    2.4751    1.6580 H         1 <0>         0.0000
     35 H10         1.0087    2.6419   -0.0628 H         1 <0>         0.0000
     36 H11        -2.0836    0.4358    1.5419 H         1 <0>         0.0000
     37 H12        -1.7474    0.3002    3.2772 H         1 <0>         0.0000
     38 H13        -0.6480    3.8367    1.3610 H         1 <0>         0.0000
     39 H14        -1.4156    2.5704    0.3946 H         1 <0>         0.0000
     40 H15        -0.9103    2.8967    5.0257 H         1 <0>         0.0000
     41 H16        -0.9756    4.6276    5.4448 H         1 <0>         0.0000
     42 H17        -1.5209    4.7175    3.1329 H         1 <0>         0.0000
     43 H18        -5.0526    2.8152    4.2325 H         1 <0>         0.0000
     44 H19        -6.0215    4.2927    4.1401 H         1 <0>         0.0000
     45 H20        -5.8851    3.4053    5.6736 H         1 <0>         0.0000
     46 H21        -5.3828    7.7777    5.2981 H         1 <0>         0.0000
     47 H22        -4.8064    6.8652    3.8909 H         1 <0>         0.0000
     48 H23        -6.2850    6.3694    4.7376 H         1 <0>         0.0000
     49 H24        -5.3503    6.6367    7.6384 H         1 <0>         0.0000
     50 H25        -4.6427    5.0257    7.8195 H         1 <0>         0.0000
     51 H26        -6.1825    5.2352    6.9610 H         1 <0>         0.0000
     52 H27        -3.1401    3.0349    2.0776 H         1 <0>         0.0000
     53 H28        -3.0006    2.0861    3.5643 H         1 <0>         0.0000
     54 H29        -2.5594    6.7887    5.1839 H         1 <0>         0.0000
     55 H30        -2.5007    6.0329    6.8032 H         1 <0>         0.0000
@<TRIPOS>BOND
     1    1    3 ar
     2    1    5 ar
     3    1   26 1
     4    2    4 ar
     5    2    5 ar
     6    2   27 1
     7    3    6 ar
     8    3   28 1
     9    4    6 ar
    10    4   29 1
    11    5   23 1
    12    6   25 1
    13    7    9 1
    14    7    8 1
    15    7   30 1
    16    7   31 1
    17    8   10 1
    18    8   32 1
    19    8   33 1
    20    9   11 1
    21    9   34 1
    22    9   35 1
    23   10   21 1
    24   10   36 1
    25   10   37 1
    26   11   21 1
    27   11   38 1
    28   11   39 1
    29   12   13 1
    30   12   24 1
    31   12   40 1
    32   12   41 1
    33   13   18 1
    34   13   22 1
    35   13   42 1
    36   14   15 1
    37   14   20 1
    38   14   22 1
    39   14   24 1
    40   15   43 1
    41   15   44 1
    42   15   45 1
    43   16   20 1
    44   16   46 1
    45   16   47 1
    46   16   48 1
    47   17   20 1
    48   17   49 1
    49   17   50 1
    50   17   51 1
    51   18   21 1
    52   18   52 1
    53   18   53 1
    54   19   20 1
    55   19   23 1
    56   19   54 1
    57   19   55 1
