@<TRIPOS>MOLECULE
*****
   15    14     0     0     0
SMALL
NO_CHARGES

@<TRIPOS>ATOM
      1 C1         -0.1156    1.5386    0.8960 C.2       1 <0>         0.0000
      2 C2         -0.2564    0.5880   -0.0261 C.2       1 <0>         0.0000
      3 C3          0.4919   -0.7276    0.0450 C.2       1 <0>         0.0000
      4 O1          0.8830   -1.1499    1.1126 O.2       1 <0>         0.0000
      5 O2          0.2768    0.4333   -3.1551 O.2       1 <0>         0.0000
      6 O3          0.7010   -1.3978   -1.1008 O.3       1 <0>         0.0000
      7 O4         -0.4045    2.8076   -2.2883 O.3       1 <0>         0.0000
      8 O5         -2.1768    1.3524   -3.2766 O.3       1 <0>         0.0000
      9 O6         -1.2042    0.7546   -1.0618 O.3       1 <0>         0.0000
     10 P1         -0.7746    1.2693   -2.5171 P.3       1 <0>         0.0000
     11 H1         -0.6679    2.4700    0.8297 H         1 <0>         0.0000
     12 H2          0.5568    1.3688    1.7290 H         1 <0>         0.0000
     13 H3          0.5597   -0.8442   -1.9066 H         1 <0>         0.0000
     14 H4          0.3097    3.1111   -2.8752 H         1 <0>         0.0000
     15 H5         -2.4262    0.5140   -3.7035 H         1 <0>         0.0000
@<TRIPOS>BOND
     1    1    2 2
     2    1   11 1
     3    1   12 1
     4    2    3 1
     5    2    9 1
     6    3    4 2
     7    3    6 1
     8    5   10 2
     9    6   13 1
    10    7   10 1
    11    7   14 1
    12    8   10 1
    13    8   15 1
    14    9   10 1
