@<TRIPOS>MOLECULE
*****
   15    14     0     0     0
SMALL
NO_CHARGES

@<TRIPOS>ATOM
      1 C1          0.8224    1.3614   -0.2553 C.2       1 <0>         0.0000
      2 C2         -0.1453    0.4676   -0.4720 C.2       1 <0>         0.0000
      3 C3         -0.1586   -0.8405    0.2504 C.2       1 <0>         0.0000
      4 O1          0.7332   -1.2496    0.9625 O.2       1 <0>         0.0000
      5 O2         -3.4587    1.3507   -2.2518 O.2       1 <0>         0.0000
      6 O3         -1.3079   -1.5526    0.0334 O.3       1 <0>         0.0000
      7 O4         -2.1774    2.8483   -0.5420 O.3       1 <0>         0.0000
      8 O5         -3.0228    0.7033    0.2935 O.3       1 <0>         0.0000
      9 O6         -1.1399    0.6647   -1.4204 O.3       1 <0>         0.0000
     10 P1         -2.5639    1.3816   -1.0847 P.3       1 <0>         0.0000
     11 H1          0.8269    2.3115   -0.7780 H         1 <0>         0.0000
     12 H2          1.6098    1.1348    0.4543 H         1 <0>         0.0000
     13 H3         -1.2026   -2.3880    0.5291 H         1 <0>         0.0000
     14 H4         -2.5386    3.5326   -1.1313 H         1 <0>         0.0000
     15 H5         -2.9457   -0.2702    0.2625 H         1 <0>         0.0000
@<TRIPOS>BOND
     1    1    2 2
     2    1   11 1
     3    1   12 1
     4    2    3 1
     5    2    9 1
     6    3    4 2
     7    3    6 1
     8    5   10 2
     9    6   13 1
    10    7   10 1
    11    7   14 1
    12    8   10 1
    13    8   15 1
    14    9   10 1
