@<TRIPOS>MOLECULE
*****
   15    14     0     0     0
SMALL
NO_CHARGES

@<TRIPOS>ATOM
      1 C1          0.4752    1.4328    1.1868 C.2       1 <0>         0.0000
      2 C2         -0.4756    0.6803    0.6284 C.2       1 <0>         0.0000
      3 C3         -0.8986   -0.6062    1.2590 C.2       1 <0>         0.0000
      4 O1         -0.3954   -1.1012    2.2432 O.2       1 <0>         0.0000
      5 O2          0.0736   -0.6564   -1.9684 O.2       1 <0>         0.0000
      6 O3         -1.9543   -1.1912    0.6070 O.3       1 <0>         0.0000
      7 O4         -1.1057    1.4373   -3.0106 O.3       1 <0>         0.0000
      8 O5         -2.5592   -0.2860   -2.0817 O.3       1 <0>         0.0000
      9 O6         -1.1598    1.1044   -0.4998 O.3       1 <0>         0.0000
     10 P1         -1.0719    0.2723   -1.9113 P.3       1 <0>         0.0000
     11 H1          0.7752    2.3712    0.7329 H         1 <0>         0.0000
     12 H2          0.9435    1.1068    2.1080 H         1 <0>         0.0000
     13 H3         -2.1158   -2.0369    1.0687 H         1 <0>         0.0000
     14 H4         -0.2443    1.5171   -3.4548 H         1 <0>         0.0000
     15 H5         -2.8202   -0.7788   -1.2800 H         1 <0>         0.0000
@<TRIPOS>BOND
     1    1    2 2
     2    1   11 1
     3    1   12 1
     4    2    3 1
     5    2    9 1
     6    3    4 2
     7    3    6 1
     8    5   10 2
     9    6   13 1
    10    7   10 1
    11    7   14 1
    12    8   10 1
    13    8   15 1
    14    9   10 1
