@<TRIPOS>MOLECULE
*****
   73    76     0     0     0
SMALL
NO_CHARGES

@<TRIPOS>ATOM
      1 C1          8.1185    3.9598    7.4236 C.ar      1 <0>         0.0000
      2 C2          5.4947   -4.9610    5.9300 C.ar      1 <0>         0.0000
      3 C3          7.7593    3.6888    6.0977 C.ar      1 <0>         0.0000
      4 C4          7.9866    2.9578    8.3898 C.ar      1 <0>         0.0000
      5 C5          4.8450   -3.9939    6.7057 C.ar      1 <0>         0.0000
      6 C6          6.7359   -4.6619    5.3590 C.ar      1 <0>         0.0000
      7 C7         -8.2954   -2.1823   -2.9432 C.ar      1 <0>         0.0000
      8 C8         -8.3176   -1.6302   -4.2261 C.ar      1 <0>         0.0000
      9 C9          7.2751    2.4280    5.7442 C.ar      1 <0>         0.0000
     10 C10         7.5105    1.6937    8.0306 C.ar      1 <0>         0.0000
     11 C11         5.4265   -2.7403    6.8987 C.ar      1 <0>         0.0000
     12 C12         7.3194   -3.4082    5.5621 C.ar      1 <0>         0.0000
     13 C13         4.2704    0.9322    6.0886 C.ar      1 <0>         0.0000
     14 C14         5.0655   -0.6211    4.4365 C.ar      1 <0>         0.0000
     15 C15         3.0321    0.9803    5.4589 C.ar      1 <0>         0.0000
     16 C16         3.8303   -0.5774    3.7844 C.ar      1 <0>         0.0000
     17 C17        -7.0622   -2.4355   -2.3426 C.ar      1 <0>         0.0000
     18 C18        -7.0982   -1.3534   -4.8506 C.ar      1 <0>         0.0000
     19 C19         7.1597    1.4051    6.7015 C.ar      1 <0>         0.0000
     20 C20         5.3091    0.1132    5.6047 C.ar      1 <0>         0.0000
     21 C21         6.6685   -2.4217    6.3219 C.ar      1 <0>         0.0000
     22 C22         2.8000    0.2194    4.3022 C.ar      1 <0>         0.0000
     23 C23        -5.8954   -2.1186   -3.0524 C.ar      1 <0>         0.0000
     24 C24         6.6217    0.0698    6.3086 C.2       1 <0>         0.0000
     25 C25         7.2914   -1.0868    6.5559 C.2       1 <0>         0.0000
     26 C26         8.8015   -1.7702    8.4972 C.3       1 <0>         0.0000
     27 C27        -4.5337   -2.3517   -2.4524 C.3       1 <0>         0.0000
     28 C28         8.7059   -1.1318    7.1010 C.3       1 <0>         0.0000
     29 C29        -0.6274   -0.9855    0.9834 C.3       1 <0>         0.0000
     30 C30        -0.1978   -0.1816    2.2156 C.3       1 <0>         0.0000
     31 C31        -2.0910   -0.7258    0.6032 C.3       1 <0>         0.0000
     32 C32         1.2519   -0.4488    2.5934 C.3       1 <0>         0.0000
     33 C33        -2.5031   -1.5454   -0.6200 C.3       1 <0>         0.0000
     34 N1         -5.9068   -1.5858   -4.2842 N.ar      1 <0>         0.0000
     35 O1         -5.0790   -1.6870    0.0863 O.2       1 <0>         0.0000
     36 O2         -4.3537    0.1724   -1.5064 O.2       1 <0>         0.0000
     37 O3          1.5501    0.3299    3.7530 O.3       1 <0>         0.0000
     38 S1         -4.2441   -1.2179   -1.0380 S.o2      1 <0>         0.0000
     39 H1          8.4879    4.9438    7.7010 H         1 <0>         0.0000
     40 H2          5.0420   -5.9374    5.7772 H         1 <0>         0.0000
     41 H3          7.8521    4.4630    5.3401 H         1 <0>         0.0000
     42 H4          8.2475    3.1614    9.4255 H         1 <0>         0.0000
     43 H5          3.8838   -4.2173    7.1622 H         1 <0>         0.0000
     44 H6          7.2512   -5.4049    4.7551 H         1 <0>         0.0000
     45 H7         -9.2197   -2.4091   -2.4186 H         1 <0>         0.0000
     46 H8         -9.2533   -1.4159   -4.7343 H         1 <0>         0.0000
     47 H9          6.9825    2.2269    4.7171 H         1 <0>         0.0000
     48 H10         7.3943    0.9241    8.7883 H         1 <0>         0.0000
     49 H11         4.9150   -1.9914    7.4960 H         1 <0>         0.0000
     50 H12         8.2807   -3.1887    5.1046 H         1 <0>         0.0000
     51 H13         4.4369    1.5339    6.9780 H         1 <0>         0.0000
     52 H14         5.8531   -1.2443    4.0254 H         1 <0>         0.0000
     53 H15         2.2288    1.6024    5.8433 H         1 <0>         0.0000
     54 H16         3.6890   -1.1628    2.8830 H         1 <0>         0.0000
     55 H17        -6.9941   -2.8438   -1.3393 H         1 <0>         0.0000
     56 H18        -7.0747   -0.9234   -5.8505 H         1 <0>         0.0000
     57 H19         8.4079   -2.7911    8.4934 H         1 <0>         0.0000
     58 H20         8.2284   -1.1964    9.2330 H         1 <0>         0.0000
     59 H21         9.8429   -1.8078    8.8344 H         1 <0>         0.0000
     60 H22        -3.7646   -2.1450   -3.1984 H         1 <0>         0.0000
     61 H23        -4.4213   -3.3594   -2.0439 H         1 <0>         0.0000
     62 H24         9.1395   -0.1305    7.1165 H         1 <0>         0.0000
     63 H25         9.3226   -1.7236    6.4120 H         1 <0>         0.0000
     64 H26         0.0214   -0.7334    0.1340 H         1 <0>         0.0000
     65 H27        -0.4848   -2.0574    1.1763 H         1 <0>         0.0000
     66 H28        -0.8366   -0.4330    3.0699 H         1 <0>         0.0000
     67 H29        -0.3239    0.8908    2.0288 H         1 <0>         0.0000
     68 H30        -2.7448   -0.9802    1.4434 H         1 <0>         0.0000
     69 H31        -2.2368    0.3378    0.3896 H         1 <0>         0.0000
     70 H32         1.4054   -1.5151    2.8109 H         1 <0>         0.0000
     71 H33         1.9250   -0.1686    1.7709 H         1 <0>         0.0000
     72 H34        -1.9165   -1.2797   -1.5044 H         1 <0>         0.0000
     73 H35        -2.4211   -2.6208   -0.4338 H         1 <0>         0.0000
@<TRIPOS>BOND
     1    1    4 ar
     2    1    3 ar
     3    1   39 1
     4    2    6 ar
     5    2    5 ar
     6    2   40 1
     7    3    9 ar
     8    3   41 1
     9    4   10 ar
    10    4   42 1
    11    5   11 ar
    12    5   43 1
    13    6   12 ar
    14    6   44 1
    15    7    8 ar
    16    7   17 ar
    17    7   45 1
    18    8   18 ar
    19    8   46 1
    20    9   19 ar
    21    9   47 1
    22   10   19 ar
    23   10   48 1
    24   11   21 ar
    25   11   49 1
    26   12   21 ar
    27   12   50 1
    28   13   15 ar
    29   13   20 ar
    30   13   51 1
    31   14   16 ar
    32   14   20 ar
    33   14   52 1
    34   15   22 ar
    35   15   53 1
    36   16   22 ar
    37   16   54 1
    38   17   23 ar
    39   17   55 1
    40   18   34 ar
    41   18   56 1
    42   19   24 1
    43   20   24 1
    44   21   25 1
    45   22   37 1
    46   23   27 1
    47   23   34 ar
    48   24   25 2
    49   25   28 1
    50   26   28 1
    51   26   57 1
    52   26   58 1
    53   26   59 1
    54   27   38 1
    55   27   60 1
    56   27   61 1
    57   28   62 1
    58   28   63 1
    59   29   30 1
    60   29   31 1
    61   29   64 1
    62   29   65 1
    63   30   32 1
    64   30   66 1
    65   30   67 1
    66   31   33 1
    67   31   68 1
    68   31   69 1
    69   32   37 1
    70   32   70 1
    71   32   71 1
    72   33   38 1
    73   33   72 1
    74   33   73 1
    75   35   38 2
    76   36   38 2
