@<TRIPOS>MOLECULE
*****
   15    14     0     0     0
SMALL
NO_CHARGES

@<TRIPOS>ATOM
      1 C1          1.2006    1.5337    0.4956 C.2       1 <0>         0.0000
      2 C2          0.5559    0.4798   -0.0155 C.2       1 <0>         0.0000
      3 C3          0.8943   -0.9541    0.2863 C.2       1 <0>         0.0000
      4 O1          0.0565   -1.8386    0.2611 O.2       1 <0>         0.0000
      5 O2         -2.1589    1.1645    1.1278 O.2       1 <0>         0.0000
      6 O3          2.1698   -1.2422    0.6121 O.3       1 <0>         0.0000
      7 O4         -2.4823   -0.9744   -0.4212 O.3       1 <0>         0.0000
      8 O5         -2.9245    1.2849   -1.3492 O.3       1 <0>         0.0000
      9 O6         -0.5411    0.6297   -0.8360 O.3       1 <0>         0.0000
     10 P1         -2.0733    0.5587   -0.2081 P.3       1 <0>         0.0000
     11 H1          0.8425    2.5389    0.3013 H         1 <0>         0.0000
     12 H2          2.0606    1.4229    1.1485 H         1 <0>         0.0000
     13 H3          2.7411   -0.4725    0.4472 H         1 <0>         0.0000
     14 H4         -1.7445   -1.5689   -0.1429 H         1 <0>         0.0000
     15 H5         -3.1250    0.7044   -2.1037 H         1 <0>         0.0000
@<TRIPOS>BOND
     1    1    2 2
     2    1   11 1
     3    1   12 1
     4    2    3 1
     5    2    9 1
     6    3    4 2
     7    3    6 1
     8    5   10 2
     9    6   13 1
    10    7   10 1
    11    7   14 1
    12    8   10 1
    13    8   15 1
    14    9   10 1
