@<TRIPOS>MOLECULE
*****
   27    27     0     0     0
SMALL
NO_CHARGES

@<TRIPOS>ATOM
      1 C1          0.1484   -1.2027   -0.6412 C.2       1 <0>         0.0000
      2 C2          0.8234    1.0607   -1.5253 C.2       1 <0>         0.0000
      3 C3         -0.6339   -0.6325    1.6090 C.3       1 <0>         0.0000
      4 C4          1.0137    0.0524   -0.4020 C.3       1 <0>         0.0000
      5 C5         -1.0508   -1.2943    0.2930 C.3       1 <0>         0.0000
      6 C6         -3.5833   -0.9069    0.3788 C.3       1 <0>         0.0000
      7 C7          3.1576    3.6275   -2.6475 C.3       1 <0>         0.0000
      8 C8         -2.2798   -0.6347   -0.3791 C.3       1 <0>         0.0000
      9 C9          1.8389    2.8784   -2.6669 C.3       1 <0>         0.0000
     10 O1          0.4386   -2.0196   -1.4895 O.2       1 <0>         0.0000
     11 O2         -0.1877    1.1777   -2.1887 O.2       1 <0>         0.0000
     12 O3          1.9219    1.8272   -1.6631 O.3       1 <0>         0.0000
     13 S1          0.4698    0.7959    1.1921 S.3       1 <0>         0.0000
     14 H1         -1.4798   -0.2368    2.1731 H         1 <0>         0.0000
     15 H2         -0.0862   -1.3306    2.2472 H         1 <0>         0.0000
     16 H3          2.0633   -0.2443   -0.3513 H         1 <0>         0.0000
     17 H4         -1.2636   -2.3574    0.4459 H         1 <0>         0.0000
     18 H5         -3.7798   -1.9822    0.4575 H         1 <0>         0.0000
     19 H6         -4.4295   -0.4495   -0.1439 H         1 <0>         0.0000
     20 H7         -3.5670   -0.4945    1.3933 H         1 <0>         0.0000
     21 H8          3.3405    4.0724   -1.6651 H         1 <0>         0.0000
     22 H9          3.9905    2.9602   -2.8876 H         1 <0>         0.0000
     23 H10         3.1336    4.4305   -3.3912 H         1 <0>         0.0000
     24 H11        -2.1077    0.4409   -0.4756 H         1 <0>         0.0000
     25 H12        -2.3595   -1.0257   -1.3979 H         1 <0>         0.0000
     26 H13         1.6399    2.4137   -3.6363 H         1 <0>         0.0000
     27 H14         0.9916    3.5239   -2.4201 H         1 <0>         0.0000
@<TRIPOS>BOND
     1    1    4 1
     2    1    5 1
     3    1   10 2
     4    2    4 1
     5    2   11 2
     6    2   12 1
     7    3    5 1
     8    3   13 1
     9    3   14 1
    10    3   15 1
    11    4   13 1
    12    4   16 1
    13    5    8 1
    14    5   17 1
    15    6    8 1
    16    6   18 1
    17    6   19 1
    18    6   20 1
    19    7    9 1
    20    7   21 1
    21    7   22 1
    22    7   23 1
    23    8   24 1
    24    8   25 1
    25    9   12 1
    26    9   26 1
    27    9   27 1
