@<TRIPOS>MOLECULE
*****
   23    23     0     0     0
SMALL
NO_CHARGES

@<TRIPOS>ATOM
      1 C1          3.8030   -2.1139   -0.2990 C.1       1 <0>         0.0000
      2 C2          1.5826   -1.1049   -0.0198 C.ar      1 <0>         0.0000
      3 C3          0.6051   -0.5052    0.7731 C.ar      1 <0>         0.0000
      4 C4          2.1005   -0.7043    2.7155 C.ar      1 <0>         0.0000
      5 C5          2.8083   -1.5007    0.5324 C.ar      1 <0>         0.0000
      6 C6          3.0781   -1.3038    1.9113 C.ar      1 <0>         0.0000
      7 C7          0.8984   -0.3201    2.1221 C.ar      1 <0>         0.0000
      8 C8          6.0188   -2.0865    3.9414 C.3       1 <0>         0.0000
      9 C9          4.6185   -1.5389    3.7422 C.3       1 <0>         0.0000
     10 N1          4.5921   -2.6093   -0.9980 N.1       1 <0>         0.0000
     11 O1         -1.6486    0.3231    2.5524 O.2       1 <0>         0.0000
     12 O2         -0.0870    0.0779    4.5594 O.2       1 <0>         0.0000
     13 O3          4.2795   -1.7230    2.3503 O.3       1 <0>         0.0000
     14 S1         -0.3370    0.4424    3.1715 S.o2      1 <0>         0.0000
     15 Cl1         0.2353    2.4969    2.9829 Cl        1 <0>         0.0000
     16 H1          1.4023   -1.2737   -1.0765 H         1 <0>         0.0000
     17 H2         -0.3500   -0.1972    0.3628 H         1 <0>         0.0000
     18 H3          2.2532   -0.5409    3.7747 H         1 <0>         0.0000
     19 H4          6.0580   -3.1490    3.6873 H         1 <0>         0.0000
     20 H5          6.7360   -1.5513    3.3136 H         1 <0>         0.0000
     21 H6          6.3129   -1.9664    4.9886 H         1 <0>         0.0000
     22 H7          4.5699   -0.4701    3.9831 H         1 <0>         0.0000
     23 H8          3.8888   -2.0740    4.3616 H         1 <0>         0.0000
@<TRIPOS>BOND
     1    1    5 1
     2    1   10 3
     3    2    3 ar
     4    2    5 ar
     5    2   16 1
     6    3    7 ar
     7    3   17 1
     8    4    6 ar
     9    4    7 ar
    10    4   18 1
    11    5    6 ar
    12    6   13 1
    13    7   14 1
    14    8    9 1
    15    8   19 1
    16    8   20 1
    17    8   21 1
    18    9   13 1
    19    9   22 1
    20    9   23 1
    21   11   14 2
    22   12   14 2
    23   14   15 1
