@<TRIPOS>MOLECULE
*****
   23    23     0     0     0
SMALL
NO_CHARGES

@<TRIPOS>ATOM
      1 C1          3.7913   -2.0066   -0.3187 C.1       1 <0>         0.0000
      2 C2          1.5184   -1.1365    0.0015 C.ar      1 <0>         0.0000
      3 C3          0.5132   -0.6189    0.8174 C.ar      1 <0>         0.0000
      4 C4          2.0381   -0.7677    2.7412 C.ar      1 <0>         0.0000
      5 C5          2.7698   -1.4732    0.5348 C.ar      1 <0>         0.0000
      6 C6          3.0414   -1.2898    1.9153 C.ar      1 <0>         0.0000
      7 C7          0.8056   -0.4533    2.1690 C.ar      1 <0>         0.0000
      8 C8          6.0363   -1.9609    3.9059 C.3       1 <0>         0.0000
      9 C9          4.6070   -1.4851    3.7293 C.3       1 <0>         0.0000
     10 N1          4.6047   -2.4376   -1.0324 N.1       1 <0>         0.0000
     11 O1          0.1630    0.7989    4.4248 O.2       1 <0>         0.0000
     12 O2         -1.4559    0.9218    2.4522 O.2       1 <0>         0.0000
     13 O3          4.2736   -1.6358    2.3323 O.3       1 <0>         0.0000
     14 S1         -0.4608    0.2153    3.2450 S.o2      1 <0>         0.0000
     15 Cl1        -1.3869   -1.6011    3.8983 Cl        1 <0>         0.0000
     16 H1          1.3415   -1.2823   -1.0592 H         1 <0>         0.0000
     17 H2         -0.4590   -0.3493    0.4204 H         1 <0>         0.0000
     18 H3          2.1982   -0.5988    3.7984 H         1 <0>         0.0000
     19 H4          6.1344   -3.0079    3.6074 H         1 <0>         0.0000
     20 H5          6.7213   -1.3605    3.3015 H         1 <0>         0.0000
     21 H6          6.3252   -1.8685    4.9573 H         1 <0>         0.0000
     22 H7          4.4998   -0.4307    4.0108 H         1 <0>         0.0000
     23 H8          3.9105   -2.0831    4.3294 H         1 <0>         0.0000
@<TRIPOS>BOND
     1    1    5 1
     2    1   10 3
     3    2    3 ar
     4    2    5 ar
     5    2   16 1
     6    3    7 ar
     7    3   17 1
     8    4    6 ar
     9    4    7 ar
    10    4   18 1
    11    5    6 ar
    12    6   13 1
    13    7   14 1
    14    8    9 1
    15    8   19 1
    16    8   20 1
    17    8   21 1
    18    9   13 1
    19    9   22 1
    20    9   23 1
    21   11   14 2
    22   12   14 2
    23   14   15 1
