@<TRIPOS>MOLECULE
*****
   11    11     0     0     0
SMALL
NO_CHARGES

@<TRIPOS>ATOM
      1 C1         -1.0843    0.0067   -0.8560 C.2       1 <0>         0.0000
      2 C2          0.3155    0.0853   -1.3177 C.2       1 <0>         0.0000
      3 C3         -0.2902   -0.1433    1.2891 C.2       1 <0>         0.0000
      4 C4          1.0283   -0.6538    0.7433 C.3       1 <0>         0.0000
      5 N1         -1.3697   -0.1308    0.3927 N.2       1 <0>         0.0000
      6 N2          1.3189   -0.2529   -0.6341 N.2       1 <0>         0.0000
      7 F1          0.4685    0.4810   -2.5962 F         1 <0>         0.0000
      8 S1         -0.4851    0.4029    2.8177 S.2       1 <0>         0.0000
      9 H1         -1.8879    0.0227   -1.5930 H         1 <0>         0.0000
     10 H2          1.8443   -0.3235    1.3890 H         1 <0>         0.0000
     11 H3          1.0366   -1.7543    0.7729 H         1 <0>         0.0000
@<TRIPOS>BOND
     1    1    2 1
     2    1    5 2
     3    1    9 1
     4    2    6 2
     5    2    7 1
     6    3    4 1
     7    3    5 1
     8    3    8 2
     9    4    6 1
    10    4   10 1
    11    4   11 1
