@<TRIPOS>MOLECULE
*****
   24    26     0     0     0
SMALL
NO_CHARGES

@<TRIPOS>ATOM
      1 C1          1.7543   -0.9204   -0.9634 C.ar      1 <0>         0.0000
      2 C2          0.4475   -0.9084   -0.3544 C.ar      1 <0>         0.0000
      3 C3          2.3379   -2.0721   -1.4202 C.ar      1 <0>         0.0000
      4 C4         -0.3181   -2.0351   -0.1804 C.ar      1 <0>         0.0000
      5 C5          1.5798   -3.2721   -1.2614 C.ar      1 <0>         0.0000
      6 C6          0.2750   -3.2575   -0.6529 C.ar      1 <0>         0.0000
      7 C7         -1.7385   -2.8396    1.7345 C.2       1 <0>         0.0000
      8 C8         -2.7744   -2.4802   -0.4957 C.2       1 <0>         0.0000
      9 C9         -2.4373   -3.9856    1.8221 C.2       1 <0>         0.0000
     10 C10        -3.4347   -3.6397   -0.3248 C.2       1 <0>         0.0000
     11 C11        -1.6982   -2.0030    0.4659 C.3       1 <0>         0.0000
     12 N1          1.8831   -4.5151   -1.6026 N.2       1 <0>         0.0000
     13 N2         -0.1932   -4.4971   -0.6351 N.2       1 <0>         0.0000
     14 N3         -3.2498   -4.4382    0.7936 N.pl3     1 <0>         0.0000
     15 O1          0.7932   -5.2548   -1.2155 O.3       1 <0>         0.0000
     16 H1          2.2853    0.0231   -1.0581 H         1 <0>         0.0000
     17 H2          0.0516    0.0469   -0.0166 H         1 <0>         0.0000
     18 H3          3.3206   -2.0898   -1.8795 H         1 <0>         0.0000
     19 H4         -1.1416   -2.5192    2.5828 H         1 <0>         0.0000
     20 H5         -2.9808   -1.8809   -1.3769 H         1 <0>         0.0000
     21 H6         -2.4205   -4.6032    2.7147 H         1 <0>         0.0000
     22 H7         -4.1660   -3.9974   -1.0429 H         1 <0>         0.0000
     23 H8         -1.8775   -0.9480    0.7193 H         1 <0>         0.0000
     24 H9         -3.7153   -5.3282    0.8664 H         1 <0>         0.0000
@<TRIPOS>BOND
     1    1    2 ar
     2    1    3 ar
     3    1   16 1
     4    2    4 ar
     5    2   17 1
     6    3    5 ar
     7    3   18 1
     8    4    6 ar
     9    4   11 1
    10    5    6 ar
    11    5   12 2
    12    6   13 2
    13    7    9 2
    14    7   11 1
    15    7   19 1
    16    8   10 2
    17    8   11 1
    18    8   20 1
    19    9   14 1
    20    9   21 1
    21   10   14 1
    22   10   22 1
    23   11   23 1
    24   12   15 1
    25   13   15 1
    26   14   24 1
