@<TRIPOS>MOLECULE
*****
   15    14     0     0     0
SMALL
NO_CHARGES

@<TRIPOS>ATOM
      1 C1          5.0409   -3.1097    2.3261 C.1       1 <0>         0.0000
      2 C2          2.4590   -5.2423    3.4511 C.3       1 <0>         0.0000
      3 C3          3.8840   -1.9514    4.2311 C.3       1 <0>         0.0000
      4 C4          2.6879   -1.3203    3.5152 C.3       1 <0>         0.0000
      5 N1          4.8748   -2.4844    3.3384 N.2       1 <0>         0.0000
      6 S1          5.4218   -3.9332    1.0219 S.2       1 <0>         0.0000
      7 S2          1.1485   -3.9767    3.6803 S.3       1 <0>         0.0000
      8 S3          1.7617   -2.4439    2.3981 S.3       1 <0>         0.0000
      9 H1          2.0921   -6.1469    3.9455 H         1 <0>         0.0000
     10 H2          3.4028   -4.9393    3.9068 H         1 <0>         0.0000
     11 H3          2.6113   -5.4451    2.3904 H         1 <0>         0.0000
     12 H4          3.5350   -2.7507    4.8950 H         1 <0>         0.0000
     13 H5          4.3583   -1.1940    4.8632 H         1 <0>         0.0000
     14 H6          2.0063   -0.9138    4.2676 H         1 <0>         0.0000
     15 H7          3.0153   -0.5022    2.8651 H         1 <0>         0.0000
@<TRIPOS>BOND
     1    1    5 2
     2    1    6 2
     3    2    7 1
     4    2    9 1
     5    2   10 1
     6    2   11 1
     7    3    4 1
     8    3    5 1
     9    3   12 1
    10    3   13 1
    11    4    8 1
    12    4   14 1
    13    4   15 1
    14    7    8 1
