@<TRIPOS>MOLECULE
*****
   25    26     0     0     0
SMALL
NO_CHARGES

@<TRIPOS>ATOM
      1 C1         -2.9095    0.3832   -1.5694 C.ar      1 <0>         0.0000
      2 C2         -3.2912   -1.3723    0.0849 C.ar      1 <0>         0.0000
      3 C3         -1.8852   -0.3712   -2.1583 C.ar      1 <0>         0.0000
      4 C4         -2.2834   -2.1136   -0.5231 C.ar      1 <0>         0.0000
      5 C5         -1.5861   -1.6325   -1.6270 C.ar      1 <0>         0.0000
      6 C6         -3.5854   -0.1233   -0.4610 C.ar      1 <0>         0.0000
      7 C7          1.7647   -0.0210   -1.3937 C.3       1 <0>         0.0000
      8 C8          1.9727   -0.4228   -2.8524 C.3       1 <0>         0.0000
      9 C9          0.6922    1.4848   -2.7852 C.3       1 <0>         0.0000
     10 C10        -0.7233    1.3622   -3.3531 C.3       1 <0>         0.0000
     11 O1          0.7156    0.9577   -1.4656 O.3       1 <0>         0.0000
     12 O2          1.6553    0.7889   -3.5559 O.3       1 <0>         0.0000
     13 O3         -1.2032    0.0126   -3.2765 O.3       1 <0>         0.0000
     14 F1         -1.9543   -3.3255   -0.0313 F         1 <0>         0.0000
     15 F2         -0.6067   -2.3838   -2.1693 F         1 <0>         0.0000
     16 Br1        -4.9809    0.9251    0.3286 Br        1 <0>         0.0000
     17 H1         -3.1850    1.3472   -1.9793 H         1 <0>         0.0000
     18 H2         -3.8142   -1.7716    0.9460 H         1 <0>         0.0000
     19 H3          1.4232   -0.8424   -0.7600 H         1 <0>         0.0000
     20 H4          2.6650    0.4329   -0.9614 H         1 <0>         0.0000
     21 H5          3.0059   -0.6869   -3.0882 H         1 <0>         0.0000
     22 H6          1.2977   -1.2279   -3.1541 H         1 <0>         0.0000
     23 H7          0.9797    2.5472   -2.7832 H         1 <0>         0.0000
     24 H8         -0.7079    1.6227   -4.4136 H         1 <0>         0.0000
     25 H9         -1.3840    2.0561   -2.8260 H         1 <0>         0.0000
@<TRIPOS>BOND
     1    1    3 ar
     2    1    6 ar
     3    1   17 1
     4    2    4 ar
     5    2    6 ar
     6    2   18 1
     7    3    5 ar
     8    3   13 1
     9    4    5 ar
    10    4   14 1
    11    5   15 1
    12    6   16 1
    13    7    8 1
    14    7   11 1
    15    7   19 1
    16    7   20 1
    17    8   12 1
    18    8   21 1
    19    8   22 1
    20    9   10 1
    21    9   12 1
    22    9   11 1
    23    9   23 1
    24   10   13 1
    25   10   24 1
    26   10   25 1
