@<TRIPOS>MOLECULE
*****
   27    28     0     0     0
SMALL
NO_CHARGES

@<TRIPOS>ATOM
      1 C1          1.5966   -1.4916    0.0085 C.ar      1 <0>         0.0000
      2 C2          6.0832   -5.4152    2.2331 C.ar      1 <0>         0.0000
      3 C3          0.7547   -0.5415    0.5923 C.ar      1 <0>         0.0000
      4 C4          5.1824   -6.4373    1.9083 C.ar      1 <0>         0.0000
      5 C5          2.5472   -2.1325    0.7999 C.ar      1 <0>         0.0000
      6 C6          5.6042   -4.1481    2.5611 C.ar      1 <0>         0.0000
      7 C7          0.8813   -0.2368    1.9505 C.ar      1 <0>         0.0000
      8 C8          3.8076   -6.1901    1.9159 C.ar      1 <0>         0.0000
      9 C9          2.6898   -1.8196    2.1629 C.ar      1 <0>         0.0000
     10 C10         4.2285   -3.8631    2.5469 C.ar      1 <0>         0.0000
     11 C11         1.8493   -0.8479    2.7589 C.ar      1 <0>         0.0000
     12 C12         3.3583   -4.9117    2.2318 C.ar      1 <0>         0.0000
     13 C13         3.7811   -2.4789    2.9364 C.2       1 <0>         0.0000
     14 C14         1.9415   -0.4602    4.2161 C.3       1 <0>         0.0000
     15 O1          4.3677   -1.9089    3.8532 O.2       1 <0>         0.0000
     16 F1          2.0181   -4.7043    2.2636 F         1 <0>         0.0000
     17 H1          1.5087   -1.7347   -1.0468 H         1 <0>         0.0000
     18 H2          7.1518   -5.6096    2.2348 H         1 <0>         0.0000
     19 H3         -0.0026   -0.0403   -0.0055 H         1 <0>         0.0000
     20 H4          5.5468   -7.4299    1.6580 H         1 <0>         0.0000
     21 H5          3.2022   -2.8745    0.3526 H         1 <0>         0.0000
     22 H6          6.2857   -3.3482    2.8347 H         1 <0>         0.0000
     23 H7          0.2139    0.4971    2.3960 H         1 <0>         0.0000
     24 H8          3.0832   -6.9674    1.6928 H         1 <0>         0.0000
     25 H9          2.0328   -1.3338    4.8667 H         1 <0>         0.0000
     26 H10         2.8262    0.1548    4.4017 H         1 <0>         0.0000
     27 H11         1.0533    0.1048    4.5126 H         1 <0>         0.0000
@<TRIPOS>BOND
     1    1    3 ar
     2    1    5 ar
     3    1   17 1
     4    2    4 ar
     5    2    6 ar
     6    2   18 1
     7    3    7 ar
     8    3   19 1
     9    4    8 ar
    10    4   20 1
    11    5    9 ar
    12    5   21 1
    13    6   10 ar
    14    6   22 1
    15    7   11 ar
    16    7   23 1
    17    8   12 ar
    18    8   24 1
    19    9   11 ar
    20    9   13 1
    21   10   12 ar
    22   10   13 1
    23   11   14 1
    24   12   16 1
    25   13   15 2
    26   14   25 1
    27   14   26 1
    28   14   27 1
