@<TRIPOS>MOLECULE
*****
   14    14     0     0     0
SMALL
NO_CHARGES

@<TRIPOS>ATOM
      1 C1         -0.5073   -2.3754   -0.8275 C.2       1 <0>         0.0000
      2 C2          0.2713   -2.0280    0.2525 C.2       1 <0>         0.0000
      3 C3          0.5433   -0.6424    0.7724 C.3       1 <0>         0.0000
      4 N1         -0.5762   -3.7220   -1.0790 N.2       1 <0>         0.0000
      5 N2          0.0882   -4.4600   -0.2751 N.2       1 <0>         0.0000
      6 N3          2.8627   -0.8051    1.5262 N.3       1 <0>         0.0000
      7 N4          1.9454   -0.2442    0.5899 N.3       1 <0>         0.0000
      8 S1          0.8956   -3.4756    0.9263 S.3       1 <0>         0.0000
      9 H1         -1.0466   -1.6885   -1.4696 H         1 <0>         0.0000
     10 H2         -0.0745    0.0612    0.2051 H         1 <0>         0.0000
     11 H3          0.2259   -0.5772    1.8286 H         1 <0>         0.0000
     12 H4          2.4225   -0.9797    2.4350 H         1 <0>         0.0000
     13 H5          3.2000   -1.6914    1.1580 H         1 <0>         0.0000
     14 H6          2.0151    0.7665    0.6780 H         1 <0>         0.0000
@<TRIPOS>BOND
     1    1    2 2
     2    1    4 1
     3    1    9 1
     4    2    3 1
     5    2    8 1
     6    3    7 1
     7    3   10 1
     8    3   11 1
     9    4    5 2
    10    5    8 1
    11    6    7 1
    12    6   12 1
    13    6   13 1
    14    7   14 1
