@<TRIPOS>MOLECULE
*****
   30    32     0     0     0
SMALL
NO_CHARGES

@<TRIPOS>ATOM
      1 C1          0.3429   -1.5693    1.7406 C.ar      1 <0>         0.0000
      2 C2         -1.0013   -1.2041    1.5760 C.ar      1 <0>         0.0000
      3 C3          1.3305   -1.0919    0.8703 C.ar      1 <0>         0.0000
      4 C4         -1.3768   -0.3500    0.5334 C.ar      1 <0>         0.0000
      5 C5          0.9593   -0.2410   -0.1722 C.ar      1 <0>         0.0000
      6 C6         -0.3856    0.1198   -0.3310 C.ar      1 <0>         0.0000
      7 C7         -1.1393    3.4876   -1.6365 C.cat     1 <0>         0.0000
      8 C8          1.8239    0.4068   -1.2335 C.3       1 <0>         0.0000
      9 C9          0.7902    0.9023   -2.2739 C.3       1 <0>         0.0000
     10 C10        -1.6687    5.6299   -2.3306 C.3       1 <0>         0.0000
     11 C11        -2.0148    4.5943   -3.4146 C.3       1 <0>         0.0000
     12 C12        -0.5360    1.0695   -1.4959 C.3       1 <0>         0.0000
     13 N1         -1.3750    4.7336   -1.1979 N.pl3     1 <0>         0.0000
     14 N2         -0.7008    2.4598   -0.9433 N.pl3     1 <0>         0.0000
     15 O1         -1.4170    3.3407   -2.9214 O.3       1 <0>         0.0000
     16 H1          0.6189   -2.2395    2.5499 H         1 <0>         0.0000
     17 H2         -1.7536   -1.5954    2.2546 H         1 <0>         0.0000
     18 H3          2.3674   -1.3897    1.0030 H         1 <0>         0.0000
     19 H4         -2.4205   -0.0765    0.3952 H         1 <0>         0.0000
     20 H5          2.4019    1.2371   -0.8089 H         1 <0>         0.0000
     21 H6          2.5452   -0.2875   -1.6723 H         1 <0>         0.0000
     22 H7          1.0893    1.8136   -2.7973 H         1 <0>         0.0000
     23 H8          0.6286    0.1280   -3.0293 H         1 <0>         0.0000
     24 H9         -0.7924    6.2326   -2.5858 H         1 <0>         0.0000
     25 H10        -2.5104    6.2846   -2.1010 H         1 <0>         0.0000
     26 H11        -3.0868    4.4166   -3.5100 H         1 <0>         0.0000
     27 H12        -1.5719    4.7973   -4.3874 H         1 <0>         0.0000
     28 H13        -1.4161    0.8820   -2.1137 H         1 <0>         0.0000
     29 H14        -1.0841    5.0653   -0.2859 H         1 <0>         0.0000
     30 H15        -0.4744    2.5931    0.0376 H         1 <0>         0.0000
@<TRIPOS>BOND
     1    1    2 ar
     2    1    3 ar
     3    1   16 1
     4    2    4 ar
     5    2   17 1
     6    3    5 ar
     7    3   18 1
     8    4    6 ar
     9    4   19 1
    10    5    6 ar
    11    5    8 1
    12    6   12 1
    13    7   13 1
    14    7   14 2
    15    7   15 1
    16    8    9 1
    17    8   20 1
    18    8   21 1
    19    9   12 1
    20    9   22 1
    21    9   23 1
    22   10   11 1
    23   10   13 1
    24   10   24 1
    25   10   25 1
    26   11   15 1
    27   11   26 1
    28   11   27 1
    29   12   14 1
    30   12   28 1
    31   13   29 1
    32   14   30 1
