@<TRIPOS>MOLECULE
*****
   24    26     0     0     0
SMALL
NO_CHARGES

@<TRIPOS>ATOM
      1 C1         -0.1542   -0.2627    1.2642 C.ar      1 <0>         0.0000
      2 C2          0.9377    0.1473    2.0264 C.ar      1 <0>         0.0000
      3 C3          6.3377    0.6378    6.4578 C.2       1 <0>         0.0000
      4 C4         -0.6148   -1.5694    1.4316 C.ar      1 <0>         0.0000
      5 C5          7.1709    0.1079    7.4039 C.2       1 <0>         0.0000
      6 C6          5.4604   -1.5244    6.6395 C.2       1 <0>         0.0000
      7 C7          1.5415   -0.7410    2.9289 C.ar      1 <0>         0.0000
      8 C8          5.3471   -0.3031    6.0132 C.2       1 <0>         0.0000
      9 C9          0.9854   -2.0423    3.0121 C.ar      1 <0>         0.0000
     10 C10         4.3245   -0.0230    5.0124 C.2       1 <0>         0.0000
     11 C11         2.6845   -0.3125    3.7269 C.2       1 <0>         0.0000
     12 N1         -0.0590   -2.4395    2.2851 N.ar      1 <0>         0.0000
     13 N2          3.3895   -0.9617    4.6141 N.2       1 <0>         0.0000
     14 N3          4.2129    1.1457    4.4113 N.2       1 <0>         0.0000
     15 O1          3.1163    0.9630    3.5470 O.3       1 <0>         0.0000
     16 O2          1.5125   -2.9503    3.8573 O.3       1 <0>         0.0000
     17 S1          6.7642   -1.5427    7.7692 S.3       1 <0>         0.0000
     18 H1         -0.6355    0.4085    0.5607 H         1 <0>         0.0000
     19 H2          1.3336    1.1532    1.9329 H         1 <0>         0.0000
     20 H3          6.4116    1.6521    6.0821 H         1 <0>         0.0000
     21 H4         -1.4641   -1.9399    0.8608 H         1 <0>         0.0000
     22 H5          7.9997    0.5866    7.9095 H         1 <0>         0.0000
     23 H6          4.8387   -2.3957    6.4820 H         1 <0>         0.0000
     24 H7          0.9736   -3.7563    3.7414 H         1 <0>         0.0000
@<TRIPOS>BOND
     1    1    2 ar
     2    1    4 ar
     3    1   18 1
     4    2    7 ar
     5    2   19 1
     6    3    5 2
     7    3    8 1
     8    3   20 1
     9    4   12 ar
    10    4   21 1
    11    5   17 1
    12    5   22 1
    13    6    8 2
    14    6   17 1
    15    6   23 1
    16    7    9 ar
    17    7   11 1
    18    8   10 1
    19    9   12 ar
    20    9   16 1
    21   10   13 1
    22   10   14 2
    23   11   13 2
    24   11   15 1
    25   14   15 1
    26   16   24 1
