@<TRIPOS>MOLECULE
*****
   25    25     0     0     0
SMALL
NO_CHARGES

@<TRIPOS>ATOM
      1 C1          0.8203    1.2244    3.3155 C.2       1 <0>         0.0000
      2 C2          0.5766    0.2225    2.4433 C.2       1 <0>         0.0000
      3 C3          2.6812   -0.4621    3.2049 C.2       1 <0>         0.0000
      4 C4         -1.2813   -1.2882    1.6491 C.2       1 <0>         0.0000
      5 C5         -3.3329   -2.4554    1.5949 C.3       1 <0>         0.0000
      6 C6          4.8186   -3.5584    3.7079 C.3       1 <0>         0.0000
      7 C7         -0.6205    0.0797    1.5515 C.3       1 <0>         0.0000
      8 N1          3.7788   -1.1371    3.4076 N.2       1 <0>         0.0000
      9 N2          1.6182   -0.7026    2.3755 N.pl3     1 <0>         0.0000
     10 O1         -0.6732   -2.3368    1.7446 O.2       1 <0>         0.0000
     11 O2          2.8669   -3.0963    1.9583 O.2       1 <0>         0.0000
     12 O3          5.1643   -2.1393    1.4932 O.2       1 <0>         0.0000
     13 O4         -2.6218   -1.1935    1.5753 O.3       1 <0>         0.0000
     14 S1          2.3861    1.0397    4.0947 S.3       1 <0>         0.0000
     15 S2          4.1145   -2.4715    2.4620 S.o2      1 <0>         0.0000
     16 H1          0.1887    2.0754    3.5281 H         1 <0>         0.0000
     17 H2         -4.3868   -2.1929    1.5130 H         1 <0>         0.0000
     18 H3         -3.1346   -2.9832    2.5299 H         1 <0>         0.0000
     19 H4         -3.0194   -3.0772    0.7539 H         1 <0>         0.0000
     20 H5          5.1351   -4.4633    3.1864 H         1 <0>         0.0000
     21 H6          5.6711   -3.0502    4.1582 H         1 <0>         0.0000
     22 H7          4.0516   -3.7826    4.4493 H         1 <0>         0.0000
     23 H8         -0.3163    0.1994    0.5029 H         1 <0>         0.0000
     24 H9         -1.3444    0.8641    1.7726 H         1 <0>         0.0000
     25 H10         1.5273   -1.6240    1.9351 H         1 <0>         0.0000
@<TRIPOS>BOND
     1    1    2 2
     2    1   14 1
     3    1   16 1
     4    2    7 1
     5    2    9 1
     6    3    8 2
     7    3    9 1
     8    3   14 1
     9    4    7 1
    10    4   10 2
    11    4   13 1
    12    5   13 1
    13    5   17 1
    14    5   18 1
    15    5   19 1
    16    6   15 1
    17    6   20 1
    18    6   21 1
    19    6   22 1
    20    7   23 1
    21    7   24 1
    22    8   15 1
    23    9   25 1
    24   11   15 2
    25   12   15 2
