@<TRIPOS>MOLECULE
*****
   25    26     0     0     0
SMALL
NO_CHARGES

@<TRIPOS>ATOM
      1 C1         -2.1749   -1.6554   -1.8780 C.ar      1 <0>         0.0000
      2 C2         -2.9200   -2.0947   -0.7821 C.ar      1 <0>         0.0000
      3 C3         -3.8494    0.1337   -0.5511 C.ar      1 <0>         0.0000
      4 C4         -2.2376   -0.3313   -2.3309 C.ar      1 <0>         0.0000
      5 C5         -3.1110    0.5352   -1.6569 C.ar      1 <0>         0.0000
      6 C6         -3.7447   -1.1881   -0.1169 C.ar      1 <0>         0.0000
      7 C7          0.6567    0.4614   -0.5469 C.3       1 <0>         0.0000
      8 C8          1.2546   -0.4079   -1.6519 C.3       1 <0>         0.0000
      9 C9          0.3073    1.4606   -2.6072 C.3       1 <0>         0.0000
     10 C10        -0.8561    1.2555   -3.5756 C.3       1 <0>         0.0000
     11 O1         -0.1639    1.3898   -1.2670 O.3       1 <0>         0.0000
     12 O2          1.3391    0.4974   -2.7588 O.3       1 <0>         0.0000
     13 O3         -1.4969   -0.0225   -3.4393 O.3       1 <0>         0.0000
     14 F1         -3.2549    1.8172   -2.0791 F         1 <0>         0.0000
     15 Br1        -4.7576   -1.7570    1.4077 Br        1 <0>         0.0000
     16 H1         -1.5263   -2.3421   -2.4135 H         1 <0>         0.0000
     17 H2         -2.8516   -3.1256   -0.4519 H         1 <0>         0.0000
     18 H3         -4.4956    0.8527   -0.0594 H         1 <0>         0.0000
     19 H4          0.0170   -0.0923    0.1446 H         1 <0>         0.0000
     20 H5          1.4308    1.0016    0.0124 H         1 <0>         0.0000
     21 H6          2.2620   -0.7665   -1.4289 H         1 <0>         0.0000
     22 H7          0.6059   -1.2553   -1.8973 H         1 <0>         0.0000
     23 H8          0.7501    2.4485   -2.8054 H         1 <0>         0.0000
     24 H9         -0.4624    1.2566   -4.5941 H         1 <0>         0.0000
     25 H10        -1.5669    2.0761   -3.4641 H         1 <0>         0.0000
@<TRIPOS>BOND
     1    1    2 ar
     2    1    4 ar
     3    1   16 1
     4    2    6 ar
     5    2   17 1
     6    3    5 ar
     7    3    6 ar
     8    3   18 1
     9    4    5 ar
    10    4   13 1
    11    5   14 1
    12    6   15 1
    13    7    8 1
    14    7   11 1
    15    7   19 1
    16    7   20 1
    17    8   12 1
    18    8   21 1
    19    8   22 1
    20    9   10 1
    21    9   12 1
    22    9   11 1
    23    9   23 1
    24   10   13 1
    25   10   24 1
    26   10   25 1
