@<TRIPOS>MOLECULE
*****
   20    20     0     0     0
SMALL
NO_CHARGES

@<TRIPOS>ATOM
      1 C1          1.5551   -1.2334   -0.0530 C.ar      1 <0>         0.0000
      2 C2          0.5134   -0.5371    0.5483 C.ar      1 <0>         0.0000
      3 C3          1.6102   -0.8501    2.6937 C.ar      1 <0>         0.0000
      4 C4          2.6608   -1.7217    0.6726 C.ar      1 <0>         0.0000
      5 C5          2.6510   -1.5655    2.0775 C.ar      1 <0>         0.0000
      6 C6          0.5701   -0.3358    1.9317 C.ar      1 <0>         0.0000
      7 C7          3.7575   -2.2929   -0.1369 C.2       1 <0>         0.0000
      8 C8          4.1510   -3.3569    2.6837 C.3       1 <0>         0.0000
      9 N1          5.0163   -2.0337   -0.1066 N.2       1 <0>         0.0000
     10 O1          5.3524   -1.1159    0.9021 O.3       1 <0>         0.0000
     11 O2          3.5707   -2.0736    2.9435 O.3       1 <0>         0.0000
     12 Cl1        -0.7212    0.5480    2.7267 Cl        1 <0>         0.0000
     13 H1          1.5417   -1.3717   -1.1315 H         1 <0>         0.0000
     14 H2         -0.3149   -0.1500   -0.0350 H         1 <0>         0.0000
     15 H3          1.6284   -0.7380    3.7724 H         1 <0>         0.0000
     16 H4          3.4886   -2.9648   -0.9514 H         1 <0>         0.0000
     17 H5          4.4010   -3.7717    3.6626 H         1 <0>         0.0000
     18 H6          5.0569   -3.2678    2.0815 H         1 <0>         0.0000
     19 H7          3.4338   -4.0152    2.1818 H         1 <0>         0.0000
     20 H8          6.3061   -0.9932    0.7654 H         1 <0>         0.0000
@<TRIPOS>BOND
     1    1    2 ar
     2    1    4 ar
     3    1   13 1
     4    2    6 ar
     5    2   14 1
     6    3    5 ar
     7    3    6 ar
     8    3   15 1
     9    4    5 ar
    10    4    7 1
    11    5   11 1
    12    6   12 1
    13    7    9 2
    14    7   16 1
    15    8   11 1
    16    8   17 1
    17    8   18 1
    18    8   19 1
    19    9   10 1
    20   10   20 1
