@<TRIPOS>MOLECULE
*****
   32    33     0     0     0
SMALL
NO_CHARGES

@<TRIPOS>ATOM
      1 C1         -0.0208   -5.4304    0.1511 C.2       1 <0>         0.0000
      2 C2         -0.2749   -1.8242   -2.1764 C.2       1 <0>         0.0000
      3 C3          0.0145   -6.8488   -0.0489 C.2       1 <0>         0.0000
      4 C4          0.1029   -1.1621   -0.9707 C.2       1 <0>         0.0000
      5 C5          0.0781   -3.1736   -2.0353 C.2       1 <0>         0.0000
      6 C6         -1.2960   -5.1850    0.5860 C.2       1 <0>         0.0000
      7 C7          1.1582   -7.6898   -0.5270 C.3       1 <0>         0.0000
      8 C8         -0.0382    0.2733   -0.5782 C.3       1 <0>         0.0000
      9 C9         -0.0722   -4.3465   -2.9467 C.3       1 <0>         0.0000
     10 C10        -2.0367   -3.9401    0.9379 C.3       1 <0>         0.0000
     11 C11         1.0848   -4.4437   -0.0936 C.3       1 <0>         0.0000
     12 N1          0.6447   -2.0471   -0.1398 N.2       1 <0>         0.0000
     13 N2         -1.1411   -7.4061    0.2454 N.2       1 <0>         0.0000
     14 N3          0.6279   -3.2480   -0.8034 N.pl3     1 <0>         0.0000
     15 N4         -0.9038   -1.2394   -3.3148 N.pl3     1 <0>         0.0000
     16 O1         -1.2169   -1.9837   -4.2607 O.3       1 <0>         0.0000
     17 O2         -1.1095   -0.0156   -3.2960 O.2       1 <0>         0.0000
     18 O3         -1.9785   -6.3495    0.6462 O.3       1 <0>         0.0000
     19 H1          2.0115   -7.6191    0.1554 H         1 <0>         0.0000
     20 H2          0.8507   -8.7351   -0.5927 H         1 <0>         0.0000
     21 H3          1.4971   -7.3661   -1.5175 H         1 <0>         0.0000
     22 H4         -1.0846    0.5880   -0.6173 H         1 <0>         0.0000
     23 H5          0.3481    0.4091    0.4342 H         1 <0>         0.0000
     24 H6          0.5092    0.9211   -1.2682 H         1 <0>         0.0000
     25 H7          0.1058   -4.0452   -3.9790 H         1 <0>         0.0000
     26 H8          0.6171   -5.1480   -2.6745 H         1 <0>         0.0000
     27 H9         -1.0912   -4.7440   -2.8955 H         1 <0>         0.0000
     28 H10        -2.6254   -3.5871    0.0834 H         1 <0>         0.0000
     29 H11        -2.7258   -4.1293    1.7651 H         1 <0>         0.0000
     30 H12        -1.3427   -3.1466    1.2197 H         1 <0>         0.0000
     31 H13         1.5187   -4.0693    0.8360 H         1 <0>         0.0000
     32 H14         1.8908   -4.9160   -0.6631 H         1 <0>         0.0000
@<TRIPOS>BOND
     1    1    3 1
     2    1    6 2
     3    1   11 1
     4    2    4 1
     5    2    5 2
     6    2   15 1
     7    3    7 1
     8    3   13 2
     9    4    8 1
    10    4   12 2
    11    5    9 1
    12    5   14 1
    13    6   10 1
    14    6   18 1
    15    7   19 1
    16    7   20 1
    17    7   21 1
    18    8   22 1
    19    8   23 1
    20    8   24 1
    21    9   25 1
    22    9   26 1
    23    9   27 1
    24   10   28 1
    25   10   29 1
    26   10   30 1
    27   11   14 1
    28   11   31 1
    29   11   32 1
    30   12   14 1
    31   13   18 1
    32   15   16 1
    33   15   17 2
