@<TRIPOS>MOLECULE
*****
   27    27     0     0     0
SMALL
NO_CHARGES

@<TRIPOS>ATOM
      1 C1          0.5654   -0.2540   -0.7544 C.2       1 <0>         0.0000
      2 C2          1.2474    1.9909    0.1843 C.2       1 <0>         0.0000
      3 C3         -0.6724   -0.5335    1.3793 C.3       1 <0>         0.0000
      4 C4          1.4781    0.4879    0.2416 C.3       1 <0>         0.0000
      5 C5         -0.6100   -0.9714   -0.0866 C.3       1 <0>         0.0000
      6 C6         -3.0773   -1.6051   -0.3329 C.3       1 <0>         0.0000
      7 C7         -1.9498    3.7334   -0.1171 C.3       1 <0>         0.0000
      8 C8         -1.9139   -0.7665   -0.8716 C.3       1 <0>         0.0000
      9 C9         -0.4427    3.6677    0.0439 C.3       1 <0>         0.0000
     10 O1          0.7928   -0.2701   -1.9465 O.2       1 <0>         0.0000
     11 O2          2.1198    2.8296    0.2490 O.2       1 <0>         0.0000
     12 O3         -0.0737    2.2623    0.0706 O.3       1 <0>         0.0000
     13 S1          1.0590   -0.1761    1.9000 S.3       1 <0>         0.0000
     14 H1         -1.2814    0.3661    1.4964 H         1 <0>         0.0000
     15 H2         -1.0586   -1.3133    2.0377 H         1 <0>         0.0000
     16 H3          2.5267    0.2974    0.0136 H         1 <0>         0.0000
     17 H4         -0.3388   -2.0365   -0.1169 H         1 <0>         0.0000
     18 H5         -2.8367   -2.6742   -0.3540 H         1 <0>         0.0000
     19 H6         -3.9776   -1.4542   -0.9372 H         1 <0>         0.0000
     20 H7         -3.3262   -1.3396    0.7004 H         1 <0>         0.0000
     21 H8         -2.2640    3.2515   -1.0476 H         1 <0>         0.0000
     22 H9         -2.4552    3.2409    0.7191 H         1 <0>         0.0000
     23 H10        -2.2719    4.7791   -0.1451 H         1 <0>         0.0000
     24 H11        -2.1720    0.2988   -0.8448 H         1 <0>         0.0000
     25 H12        -1.7202   -1.0164   -1.9193 H         1 <0>         0.0000
     26 H13        -0.1046    4.1307    0.9749 H         1 <0>         0.0000
     27 H14         0.0832    4.1474   -0.7856 H         1 <0>         0.0000
@<TRIPOS>BOND
     1    1    4 1
     2    1    5 1
     3    1   10 2
     4    2    4 1
     5    2   11 2
     6    2   12 1
     7    3    5 1
     8    3   13 1
     9    3   14 1
    10    3   15 1
    11    4   13 1
    12    4   16 1
    13    5    8 1
    14    5   17 1
    15    6    8 1
    16    6   18 1
    17    6   19 1
    18    6   20 1
    19    7    9 1
    20    7   21 1
    21    7   22 1
    22    7   23 1
    23    8   24 1
    24    8   25 1
    25    9   12 1
    26    9   26 1
    27    9   27 1
