@<TRIPOS>MOLECULE
*****
   25    26     0     0     0
SMALL
NO_CHARGES

@<TRIPOS>ATOM
      1 C1         -3.9434    0.1203   -5.4522 C.ar      1 <0>         0.0000
      2 C2         -2.7938    0.5369   -4.7704 C.ar      1 <0>         0.0000
      3 C3         -4.2146   -1.2326   -5.6541 C.ar      1 <0>         0.0000
      4 C4         -1.8881   -0.4119   -4.2756 C.ar      1 <0>         0.0000
      5 C5         -3.3089   -2.1677   -5.1574 C.ar      1 <0>         0.0000
      6 C6         -2.1622   -1.7756   -4.4779 C.ar      1 <0>         0.0000
      7 C7          3.0951    1.6734   -2.9131 C.3       1 <0>         0.0000
      8 C8          2.4625    2.9703   -2.3945 C.3       1 <0>         0.0000
      9 C9          0.9004    1.2741   -2.6250 C.3       1 <0>         0.0000
     10 C10        -0.4177    1.2340   -3.3750 C.3       1 <0>         0.0000
     11 O1          1.9788    0.9925   -3.4914 O.3       1 <0>         0.0000
     12 O2          1.0998    2.5987   -2.1242 O.3       1 <0>         0.0000
     13 O3         -0.7410   -0.1365   -3.5993 O.3       1 <0>         0.0000
     14 F1         -3.5351   -3.4881   -5.3309 F         1 <0>         0.0000
     15 F2         -1.3093   -2.7056   -4.0089 F         1 <0>         0.0000
     16 H1         -4.6353    0.8670   -5.8300 H         1 <0>         0.0000
     17 H2         -2.6096    1.5951   -4.6290 H         1 <0>         0.0000
     18 H3         -5.0997   -1.5749   -6.1801 H         1 <0>         0.0000
     19 H4          3.8452    1.8224   -3.6914 H         1 <0>         0.0000
     20 H5          3.5258    1.0786   -2.0956 H         1 <0>         0.0000
     21 H6          2.9271    3.3366   -1.4742 H         1 <0>         0.0000
     22 H7          2.4742    3.7632   -3.1506 H         1 <0>         0.0000
     23 H8          0.8897    0.5627   -1.7842 H         1 <0>         0.0000
     24 H9         -0.3078    1.7748   -4.3218 H         1 <0>         0.0000
     25 H10        -1.1863    1.7176   -2.7608 H         1 <0>         0.0000
@<TRIPOS>BOND
     1    1    2 ar
     2    1    3 ar
     3    1   16 1
     4    2    4 ar
     5    2   17 1
     6    3    5 ar
     7    3   18 1
     8    4    6 ar
     9    4   13 1
    10    5    6 ar
    11    5   14 1
    12    6   15 1
    13    7    8 1
    14    7   11 1
    15    7   19 1
    16    7   20 1
    17    8   12 1
    18    8   21 1
    19    8   22 1
    20    9   10 1
    21    9   12 1
    22    9   11 1
    23    9   23 1
    24   10   13 1
    25   10   24 1
    26   10   25 1
