@<TRIPOS>MOLECULE
*****
   30    31     0     0     0
SMALL
NO_CHARGES

@<TRIPOS>ATOM
      1 C1         -1.9596    1.7218    0.8894 C.ar      1 <0>         0.0000
      2 C2         -1.3657    2.3930   -0.1860 C.ar      1 <0>         0.0000
      3 C3         -1.4993    0.4519    1.2359 C.ar      1 <0>         0.0000
      4 C4         -0.3304    1.7891   -0.8962 C.ar      1 <0>         0.0000
      5 C5         -0.4508   -0.1711    0.5431 C.ar      1 <0>         0.0000
      6 C6          0.1374    0.5125   -0.5369 C.ar      1 <0>         0.0000
      7 C7          0.4864   -2.3891   -0.2011 C.3       1 <0>         0.0000
      8 C8          1.7171   -1.8283   -0.9061 C.3       1 <0>         0.0000
      9 C9          0.0330   -1.5356    0.9935 C.3       1 <0>         0.0000
     10 C10         1.1191   -1.3531    2.0781 C.3       1 <0>         0.0000
     11 C11         1.6438   -2.6716    2.6383 C.3       1 <0>         0.0000
     12 C12         2.7088   -2.4396    3.7148 C.3       1 <0>         0.0000
     13 O1          0.5516   -3.3984    3.1801 O.3       1 <0>         0.0000
     14 F1          3.8218   -1.8797    3.1825 F         1 <0>         0.0000
     15 F2          3.0822   -3.6295    4.2686 F         1 <0>         0.0000
     16 F3          2.2886   -1.6494    4.7217 F         1 <0>         0.0000
     17 S1          1.4692   -0.1210   -1.5380 S.3       1 <0>         0.0000
     18 H1         -2.7724    2.1810    1.4453 H         1 <0>         0.0000
     19 H2         -1.7111    3.3818   -0.4766 H         1 <0>         0.0000
     20 H3         -1.9584   -0.0806    2.0671 H         1 <0>         0.0000
     21 H4          0.1222    2.3078   -1.7383 H         1 <0>         0.0000
     22 H5         -0.3417   -2.4612   -0.9140 H         1 <0>         0.0000
     23 H6          0.7061   -3.4109    0.1282 H         1 <0>         0.0000
     24 H7          2.5887   -1.8313   -0.2462 H         1 <0>         0.0000
     25 H8          1.9651   -2.4291   -1.7849 H         1 <0>         0.0000
     26 H9         -0.8076   -2.0528    1.4640 H         1 <0>         0.0000
     27 H10         1.9569   -0.7700    1.6850 H         1 <0>         0.0000
     28 H11         0.6900   -0.7742    2.9010 H         1 <0>         0.0000
     29 H12         2.1535   -3.2496    1.8550 H         1 <0>         0.0000
     30 H13         0.8734   -4.2572    3.4995 H         1 <0>         0.0000
@<TRIPOS>BOND
     1    1    2 ar
     2    1    3 ar
     3    1   18 1
     4    2    4 ar
     5    2   19 1
     6    3    5 ar
     7    3   20 1
     8    4    6 ar
     9    4   21 1
    10    5    6 ar
    11    5    9 1
    12    6   17 1
    13    7    8 1
    14    7    9 1
    15    7   22 1
    16    7   23 1
    17    8   17 1
    18    8   24 1
    19    8   25 1
    20    9   10 1
    21    9   26 1
    22   10   11 1
    23   10   27 1
    24   10   28 1
    25   11   12 1
    26   11   13 1
    27   11   29 1
    28   12   14 1
    29   12   15 1
    30   12   16 1
    31   13   30 1
