@<TRIPOS>MOLECULE
*****
   35    35     0     0     0
SMALL
NO_CHARGES

@<TRIPOS>ATOM
      1 C1         -0.2082    0.0955   -0.1853 C.1       1 <0>         0.0000
      2 C2         -1.0640    0.5589   -0.9131 C.1       1 <0>         0.0000
      3 C3          1.9491   -1.0546    0.1390 C.ar      1 <0>         0.0000
      4 C4          0.6611   -0.4018    2.0673 C.ar      1 <0>         0.0000
      5 C5          0.8008   -0.4482    0.6726 C.ar      1 <0>         0.0000
      6 C6          2.9418   -1.5953    0.9604 C.ar      1 <0>         0.0000
      7 C7          1.6381   -0.9276    2.9163 C.ar      1 <0>         0.0000
      8 C8          2.7937   -1.5243    2.3649 C.ar      1 <0>         0.0000
      9 C9          4.5821   -1.1315    4.1683 C.2       1 <0>         0.0000
     10 C10        -2.0963    1.1165   -1.7901 C.3       1 <0>         0.0000
     11 C11         5.3533   -1.2624    0.1948 C.3       1 <0>         0.0000
     12 C12         1.7241    0.6244    4.9282 C.3       1 <0>         0.0000
     13 C13         3.8405   -2.1225    3.2912 C.3       1 <0>         0.0000
     14 C14         4.1493   -2.2174    0.2827 C.3       1 <0>         0.0000
     15 C15         1.4119   -0.7927    4.4111 C.3       1 <0>         0.0000
     16 O1          4.7539   -1.2446    5.3660 O.2       1 <0>         0.0000
     17 O2          5.0837   -0.0825    3.4625 O.3       1 <0>         0.0000
     18 H1          2.0592   -1.1088   -0.9408 H         1 <0>         0.0000
     19 H2         -0.2304    0.0520    2.4927 H         1 <0>         0.0000
     20 H3         -2.4649    2.0727   -1.4032 H         1 <0>         0.0000
     21 H4         -1.7031    1.2884   -2.7976 H         1 <0>         0.0000
     22 H5         -2.9507    0.4356   -1.8734 H         1 <0>         0.0000
     23 H6          5.0850   -0.3623   -0.3680 H         1 <0>         0.0000
     24 H7          6.1945   -1.7458   -0.3142 H         1 <0>         0.0000
     25 H8          5.6846   -0.9397    1.1849 H         1 <0>         0.0000
     26 H9          2.7619    0.9021    4.7249 H         1 <0>         0.0000
     27 H10         1.5626    0.6857    6.0093 H         1 <0>         0.0000
     28 H11         1.0828    1.3657    4.4410 H         1 <0>         0.0000
     29 H12         4.6083   -2.6422    2.7140 H         1 <0>         0.0000
     30 H13         3.4025   -2.8591    3.9676 H         1 <0>         0.0000
     31 H14         4.4478   -3.1436    0.7858 H         1 <0>         0.0000
     32 H15         3.8600   -2.5150   -0.7303 H         1 <0>         0.0000
     33 H16         0.3624   -1.0217    4.6283 H         1 <0>         0.0000
     34 H17         2.0050   -1.5167    4.9740 H         1 <0>         0.0000
     35 H18         5.5598    0.4755    4.1074 H         1 <0>         0.0000
@<TRIPOS>BOND
     1    1    2 3
     2    1    5 1
     3    2   10 1
     4    3    5 ar
     5    3    6 ar
     6    3   18 1
     7    4    5 ar
     8    4    7 ar
     9    4   19 1
    10    6    8 ar
    11    6   14 1
    12    7    8 ar
    13    7   15 1
    14    8   13 1
    15    9   13 1
    16    9   16 2
    17    9   17 1
    18   10   20 1
    19   10   21 1
    20   10   22 1
    21   11   14 1
    22   11   23 1
    23   11   24 1
    24   11   25 1
    25   12   15 1
    26   12   26 1
    27   12   27 1
    28   12   28 1
    29   13   29 1
    30   13   30 1
    31   14   31 1
    32   14   32 1
    33   15   33 1
    34   15   34 1
    35   17   35 1
