@<TRIPOS>MOLECULE
*****
   30    31     0     0     0
SMALL
NO_CHARGES

@<TRIPOS>ATOM
      1 C1         -0.7775   -0.4519    7.6758 C.ar      1 <0>         0.0000
      2 C2          5.4328   -1.3933    0.5063 C.ar      1 <0>         0.0000
      3 C3         -0.5049    0.1764    6.4560 C.ar      1 <0>         0.0000
      4 C4         -0.3144   -1.7490    7.9291 C.ar      1 <0>         0.0000
      5 C5          6.1926   -2.0152    1.5039 C.ar      1 <0>         0.0000
      6 C6          4.3006   -0.6414    0.8387 C.ar      1 <0>         0.0000
      7 C7          0.2385   -0.4855    5.4775 C.ar      1 <0>         0.0000
      8 C8          0.4263   -2.4273    6.9611 C.ar      1 <0>         0.0000
      9 C9          5.8239   -1.8900    2.8437 C.ar      1 <0>         0.0000
     10 C10         3.9106   -0.5129    2.1722 C.ar      1 <0>         0.0000
     11 C11         0.6873   -1.7785    5.7509 C.ar      1 <0>         0.0000
     12 C12         4.6825   -1.1423    3.1518 C.ar      1 <0>         0.0000
     13 N1          3.2757   -2.4546    5.2766 N.pl3     1 <0>         0.0000
     14 O1          1.3849   -4.0859    4.6096 O.2       1 <0>         0.0000
     15 O2          1.5399   -1.9439    3.2359 O.2       1 <0>         0.0000
     16 O3          5.4052   -1.0835    5.6916 O.2       1 <0>         0.0000
     17 O4          3.2231    0.0810    5.0302 O.2       1 <0>         0.0000
     18 F1          4.0498   -3.5485    4.8178 F         1 <0>         0.0000
     19 S1          1.6166   -2.6521    4.5119 S.o2      1 <0>         0.0000
     20 S2          4.2156   -0.9768    4.8608 S.o2      1 <0>         0.0000
     21 H1         -1.3527    0.0716    8.4347 H         1 <0>         0.0000
     22 H2          5.7266   -1.4932   -0.5352 H         1 <0>         0.0000
     23 H3         -0.8640    1.1840    6.2677 H         1 <0>         0.0000
     24 H4         -0.5302   -2.2316    8.8779 H         1 <0>         0.0000
     25 H5          7.0733   -2.5937    1.2405 H         1 <0>         0.0000
     26 H6          3.7169   -0.1587    0.0603 H         1 <0>         0.0000
     27 H7          0.4730   -0.0161    4.5293 H         1 <0>         0.0000
     28 H8          0.7904   -3.4352    7.1325 H         1 <0>         0.0000
     29 H9          6.4060   -2.3504    3.6347 H         1 <0>         0.0000
     30 H10         3.0340    0.0589    2.4515 H         1 <0>         0.0000
@<TRIPOS>BOND
     1    1    4 ar
     2    1    3 ar
     3    1   21 1
     4    2    6 ar
     5    2    5 ar
     6    2   22 1
     7    3    7 ar
     8    3   23 1
     9    4    8 ar
    10    4   24 1
    11    5    9 ar
    12    5   25 1
    13    6   10 ar
    14    6   26 1
    15    7   11 ar
    16    7   27 1
    17    8   11 ar
    18    8   28 1
    19    9   12 ar
    20    9   29 1
    21   10   12 ar
    22   10   30 1
    23   11   19 1
    24   12   20 1
    25   13   18 1
    26   13   19 1
    27   13   20 1
    28   14   19 2
    29   15   19 2
    30   16   20 2
    31   17   20 2
