@<TRIPOS>MOLECULE
*****
   25    26     0     0     0
SMALL
NO_CHARGES

@<TRIPOS>ATOM
      1 C1         -0.5953   -5.8370    2.2460 C.ar      1 <0>         0.0000
      2 C2         -1.8816   -5.3002    2.1301 C.ar      1 <0>         0.0000
      3 C3         -0.2039   -5.3436   -0.1108 C.ar      1 <0>         0.0000
      4 C4         -1.4879   -4.8033   -0.2247 C.ar      1 <0>         0.0000
      5 C5          0.2129   -5.8504    1.1146 C.ar      1 <0>         0.0000
      6 C6         -2.3140   -4.8045    0.9078 C.ar      1 <0>         0.0000
      7 C7         -1.0502    0.2008   -1.0195 C.3       1 <0>         0.0000
      8 C8         -0.0106   -0.6209   -0.2528 C.3       1 <0>         0.0000
      9 C9         -1.1435   -2.0454   -1.5912 C.3       1 <0>         0.0000
     10 C10        -2.3321   -2.9951   -1.5637 C.3       1 <0>         0.0000
     11 O1         -1.5951   -0.7401   -1.9599 O.3       1 <0>         0.0000
     12 O2         -0.5627   -1.9394   -0.3049 O.3       1 <0>         0.0000
     13 O3         -1.9123   -4.3658   -1.4544 O.3       1 <0>         0.0000
     14 F1          1.4656   -6.3697    1.2084 F         1 <0>         0.0000
     15 F2         -3.5779   -4.3114    0.8071 F         1 <0>         0.0000
     16 H1         -0.2293   -6.2398    3.1844 H         1 <0>         0.0000
     17 H2         -2.5600   -5.2759    2.9773 H         1 <0>         0.0000
     18 H3          0.4550   -5.3539   -0.9723 H         1 <0>         0.0000
     19 H4         -1.8492    0.5621   -0.3620 H         1 <0>         0.0000
     20 H5         -0.6172    1.0432   -1.5666 H         1 <0>         0.0000
     21 H6          0.9706   -0.5957   -0.7469 H         1 <0>         0.0000
     22 H7          0.0989   -0.3383    0.7955 H         1 <0>         0.0000
     23 H8         -0.3901   -2.3844   -2.3204 H         1 <0>         0.0000
     24 H9         -2.8565   -2.9273   -2.5184 H         1 <0>         0.0000
     25 H10        -3.0106   -2.7110   -0.7568 H         1 <0>         0.0000
@<TRIPOS>BOND
     1    1    2 ar
     2    1    5 ar
     3    1   16 1
     4    2    6 ar
     5    2   17 1
     6    3    4 ar
     7    3    5 ar
     8    3   18 1
     9    4    6 ar
    10    4   13 1
    11    5   14 1
    12    6   15 1
    13    7    8 1
    14    7   11 1
    15    7   19 1
    16    7   20 1
    17    8   12 1
    18    8   21 1
    19    8   22 1
    20    9   10 1
    21    9   12 1
    22    9   11 1
    23    9   23 1
    24   10   13 1
    25   10   24 1
    26   10   25 1
