@<TRIPOS>MOLECULE
*****
   43    43     0     0     0
SMALL
NO_CHARGES

@<TRIPOS>ATOM
      1 C1         -1.3379   -6.5058   -0.0558 C.2       1 <0>         0.0000
      2 C2         -1.1437   -5.1139   -0.1660 C.2       1 <0>         0.0000
      3 C3         -0.2176   -7.0121    0.5943 C.2       1 <0>         0.0000
      4 C4          0.0939   -4.7926    0.4099 C.2       1 <0>         0.0000
      5 C5          0.6798   -3.4512    0.4647 C.2       1 <0>         0.0000
      6 C6          1.8996   -6.2113    1.5920 C.3       1 <0>         0.0000
      7 C7         -2.5233   -0.8914   -0.6877 C.3       1 <0>         0.0000
      8 C8         -1.1993    0.9258   -1.6358 C.3       1 <0>         0.0000
      9 C9          0.2369   -0.7790    2.6255 C.3       1 <0>         0.0000
     10 C10         0.3387    1.3413    1.3758 C.3       1 <0>         0.0000
     11 C11         1.5200   -1.0338   -2.4013 C.3       1 <0>         0.0000
     12 C12         2.7065   -0.0674   -0.4884 C.3       1 <0>         0.0000
     13 N1         -0.2081   -2.4952    0.1143 N.2       1 <0>         0.0000
     14 N2          0.6479   -5.9894    0.8726 N.pl3     1 <0>         0.0000
     15 N3         -1.1839   -0.4082   -1.0374 N.pl3     1 <0>         0.0000
     16 N4          0.2560   -0.1153    1.3226 N.pl3     1 <0>         0.0000
     17 N5          1.4110   -0.4445   -1.0602 N.pl3     1 <0>         0.0000
     18 P1          0.1225   -0.9436   -0.1178 P.3       1 <0>         0.0000
     19 S1          2.3012   -3.1603    0.9059 S.2       1 <0>         0.0000
     20 H1         -2.1832   -7.0850   -0.4049 H         1 <0>         0.0000
     21 H2         -1.7980   -4.3872   -0.6251 H         1 <0>         0.0000
     22 H3          0.0237   -8.0262    0.8847 H         1 <0>         0.0000
     23 H4          2.7597   -5.9967    0.9573 H         1 <0>         0.0000
     24 H5          1.9612   -5.5663    2.4692 H         1 <0>         0.0000
     25 H6          1.9189   -7.2580    1.9057 H         1 <0>         0.0000
     26 H7         -2.4575   -1.9107   -0.3114 H         1 <0>         0.0000
     27 H8         -3.1514   -0.8832   -1.5858 H         1 <0>         0.0000
     28 H9         -3.0001   -0.2539    0.0728 H         1 <0>         0.0000
     29 H10        -0.1874    1.2377   -1.8954 H         1 <0>         0.0000
     30 H11        -1.6453    1.6781   -0.9673 H         1 <0>         0.0000
     31 H12        -1.7965    0.8973   -2.5547 H         1 <0>         0.0000
     32 H13         0.0246   -1.8391    2.5063 H         1 <0>         0.0000
     33 H14        -0.5436   -0.3325    3.2555 H         1 <0>         0.0000
     34 H15         1.2068   -0.6765    3.1274 H         1 <0>         0.0000
     35 H16         0.4911    1.7606    0.3809 H         1 <0>         0.0000
     36 H17         1.1875    1.6507    1.9996 H         1 <0>         0.0000
     37 H18        -0.5767    1.7751    1.8013 H         1 <0>         0.0000
     38 H19         0.5288   -1.2617   -2.7956 H         1 <0>         0.0000
     39 H20         2.1127   -1.9573   -2.3749 H         1 <0>         0.0000
     40 H21         2.0067   -0.3176   -3.0734 H         1 <0>         0.0000
     41 H22         2.6073    0.1482    0.5737 H         1 <0>         0.0000
     42 H23         3.0804    0.8260   -1.0058 H         1 <0>         0.0000
     43 H24         3.4289   -0.8832   -0.5900 H         1 <0>         0.0000
@<TRIPOS>BOND
     1    1    2 1
     2    1    3 2
     3    1   20 1
     4    2    4 2
     5    2   21 1
     6    3   14 1
     7    3   22 1
     8    4    5 1
     9    4   14 1
    10    5   13 1
    11    5   19 2
    12    6   14 1
    13    6   23 1
    14    6   24 1
    15    6   25 1
    16    7   15 1
    17    7   26 1
    18    7   27 1
    19    7   28 1
    20    8   15 1
    21    8   29 1
    22    8   30 1
    23    8   31 1
    24    9   16 1
    25    9   32 1
    26    9   33 1
    27    9   34 1
    28   10   16 1
    29   10   35 1
    30   10   36 1
    31   10   37 1
    32   11   17 1
    33   11   38 1
    34   11   39 1
    35   11   40 1
    36   12   17 1
    37   12   41 1
    38   12   42 1
    39   12   43 1
    40   13   18 2
    41   15   18 1
    42   16   18 1
    43   17   18 1
