@<TRIPOS>MOLECULE
*****
   20    21     0     0     0
SMALL
NO_CHARGES

@<TRIPOS>ATOM
      1 C1         -2.6783   -2.7840    1.0493 C.2       1 <0>         0.0000
      2 C2         -3.2993   -4.0647    1.1842 C.2       1 <0>         0.0000
      3 C3         -1.6504   -2.9354    0.1505 C.2       1 <0>         0.0000
      4 C4         -2.5934   -4.8915    0.3543 C.2       1 <0>         0.0000
      5 C5          1.2997   -2.9500   -1.3067 C.2       1 <0>         0.0000
      6 C6         -0.6331   -1.8982   -1.9654 C.3       1 <0>         0.0000
      7 C7         -0.6491   -1.9761   -0.4116 C.3       1 <0>         0.0000
      8 N1          0.7378   -2.3564   -0.1813 N.am      1 <0>         0.0000
      9 N2         -2.7523   -6.2884    0.0779 N.pl3     1 <0>         0.0000
     10 O1         -3.6797   -6.8536    0.6767 O.3       1 <0>         0.0000
     11 O2          2.3349   -3.5650   -1.3739 O.2       1 <0>         0.0000
     12 O3         -1.9723   -6.8150   -0.7192 O.2       1 <0>         0.0000
     13 O4         -1.5911   -4.2321   -0.2823 O.3       1 <0>         0.0000
     14 O5          0.4824   -2.6982   -2.3795 O.3       1 <0>         0.0000
     15 H1         -2.9547   -1.8672    1.5535 H         1 <0>         0.0000
     16 H2         -4.1402   -4.3498    1.7999 H         1 <0>         0.0000
     17 H3         -1.5381   -2.3008   -2.4215 H         1 <0>         0.0000
     18 H4         -0.4735   -0.8684   -2.2974 H         1 <0>         0.0000
     19 H5         -0.8703   -0.9945    0.0174 H         1 <0>         0.0000
     20 H6          1.0395   -2.7189    0.7148 H         1 <0>         0.0000
@<TRIPOS>BOND
     1    1    2 1
     2    1    3 2
     3    1   15 1
     4    2    4 2
     5    2   16 1
     6    3    7 1
     7    3   13 1
     8    4    9 1
     9    4   13 1
    10    5    8 am
    11    5   11 2
    12    5   14 1
    13    6    7 1
    14    6   14 1
    15    6   17 1
    16    6   18 1
    17    7    8 1
    18    7   19 1
    19    8   20 1
    20    9   10 1
    21    9   12 2
