@<TRIPOS>MOLECULE
*****
   30    31     0     0     0
SMALL
NO_CHARGES

@<TRIPOS>ATOM
      1 C1         -2.0812    1.5271    1.0206 C.ar      1 <0>         0.0000
      2 C2         -1.4787    2.4735    0.1842 C.ar      1 <0>         0.0000
      3 C3         -1.5721    0.2280    1.0609 C.ar      1 <0>         0.0000
      4 C4         -0.3893    2.1105   -0.6065 C.ar      1 <0>         0.0000
      5 C5         -0.4584   -0.1509    0.2972 C.ar      1 <0>         0.0000
      6 C6          0.1294    0.8055   -0.5525 C.ar      1 <0>         0.0000
      7 C7          0.4634   -2.0734   -1.0187 C.3       1 <0>         0.0000
      8 C8          1.6609   -1.3556   -1.6358 C.3       1 <0>         0.0000
      9 C9          0.0924   -1.5596    0.3849 C.3       1 <0>         0.0000
     10 C10         1.3051   -1.6379    1.3402 C.3       1 <0>         0.0000
     11 C11         1.0520   -1.2590    2.8066 C.3       1 <0>         0.0000
     12 C12         0.3140   -2.3405    3.5986 C.3       1 <0>         0.0000
     13 O1          2.2801   -1.0681    3.5047 O.3       1 <0>         0.0000
     14 F1         -0.9296   -2.5530    3.0797 F         1 <0>         0.0000
     15 F2          0.1443   -1.9881    4.8881 F         1 <0>         0.0000
     16 F3          0.9599   -3.5272    3.5776 F         1 <0>         0.0000
     17 S1          1.5417    0.4856   -1.5906 S.3       1 <0>         0.0000
     18 H1         -2.9408    1.7960    1.6282 H         1 <0>         0.0000
     19 H2         -1.8646    3.4884    0.1337 H         1 <0>         0.0000
     20 H3         -2.0413   -0.5156    1.7013 H         1 <0>         0.0000
     21 H4          0.0603    2.8385   -1.2775 H         1 <0>         0.0000
     22 H5         -0.4093   -1.9653   -1.6708 H         1 <0>         0.0000
     23 H6          0.7024   -3.1426   -0.9699 H         1 <0>         0.0000
     24 H7          2.5867   -1.6353   -1.1280 H         1 <0>         0.0000
     25 H8          1.7637   -1.6265   -2.6894 H         1 <0>         0.0000
     26 H9         -0.6988   -2.2078    0.7670 H         1 <0>         0.0000
     27 H10         1.7508   -2.6380    1.3069 H         1 <0>         0.0000
     28 H11         2.0725   -0.9403    0.9886 H         1 <0>         0.0000
     29 H12         0.4225   -0.3631    2.8654 H         1 <0>         0.0000
     30 H13         2.6515   -0.2172    3.2268 H         1 <0>         0.0000
@<TRIPOS>BOND
     1    1    2 ar
     2    1    3 ar
     3    1   18 1
     4    2    4 ar
     5    2   19 1
     6    3    5 ar
     7    3   20 1
     8    4    6 ar
     9    4   21 1
    10    5    6 ar
    11    5    9 1
    12    6   17 1
    13    7    8 1
    14    7    9 1
    15    7   22 1
    16    7   23 1
    17    8   17 1
    18    8   24 1
    19    8   25 1
    20    9   10 1
    21    9   26 1
    22   10   11 1
    23   10   27 1
    24   10   28 1
    25   11   12 1
    26   11   13 1
    27   11   29 1
    28   12   14 1
    29   12   15 1
    30   12   16 1
    31   13   30 1
