@<TRIPOS>MOLECULE
*****
   43    43     0     0     0
SMALL
NO_CHARGES

@<TRIPOS>ATOM
      1 C1          0.3876   -1.2918    4.4182 C.2       1 <0>         0.0000
      2 C2          0.0417   -1.4643    3.0576 C.2       1 <0>         0.0000
      3 C3          1.7130   -1.6906    4.5460 C.2       1 <0>         0.0000
      4 C4          1.1566   -1.9766    2.3860 C.2       1 <0>         0.0000
      5 C5          1.2126   -2.3457    0.9645 C.2       1 <0>         0.0000
      6 C6          3.5464   -2.5576    3.1030 C.3       1 <0>         0.0000
      7 C7         -1.3824    1.4607   -1.5232 C.3       1 <0>         0.0000
      8 C8         -2.0267   -0.8874   -1.2317 C.3       1 <0>         0.0000
      9 C9         -0.5002    1.6302    1.7739 C.3       1 <0>         0.0000
     10 C10         1.9068    1.2548    1.5875 C.3       1 <0>         0.0000
     11 C11         1.9697    1.5842   -1.6892 C.3       1 <0>         0.0000
     12 C12         2.0776   -0.8117   -2.1840 C.3       1 <0>         0.0000
     13 N1          0.3903   -1.6429    0.1414 N.2       1 <0>         0.0000
     14 N2          2.1729   -2.1158    3.3261 N.pl3     1 <0>         0.0000
     15 N3         -1.1729    0.2174   -0.7820 N.pl3     1 <0>         0.0000
     16 N4          0.5939    1.1201    0.9438 N.pl3     1 <0>         0.0000
     17 N5          1.6168    0.2322   -1.2589 N.pl3     1 <0>         0.0000
     18 P1          0.3652   -0.1030   -0.1857 P.3       1 <0>         0.0000
     19 S1          2.1384   -3.6340    0.4063 S.2       1 <0>         0.0000
     20 H1         -0.2463   -0.9352    5.2200 H         1 <0>         0.0000
     21 H2         -0.9185   -1.2914    2.5917 H         1 <0>         0.0000
     22 H3          2.3638   -1.6968    5.4105 H         1 <0>         0.0000
     23 H4          3.5900   -3.6387    2.9647 H         1 <0>         0.0000
     24 H5          3.9577   -2.0867    2.2090 H         1 <0>         0.0000
     25 H6          4.1403   -2.2637    3.9717 H         1 <0>         0.0000
     26 H7         -0.7999    2.2728   -1.0847 H         1 <0>         0.0000
     27 H8         -2.4404    1.7395   -1.4672 H         1 <0>         0.0000
     28 H9         -1.1086    1.3650   -2.5847 H         1 <0>         0.0000
     29 H10        -1.8129   -1.7786   -0.6442 H         1 <0>         0.0000
     30 H11        -1.8657   -1.1212   -2.2942 H         1 <0>         0.0000
     31 H12        -3.0761   -0.6026   -1.0923 H         1 <0>         0.0000
     32 H13        -1.4615    1.3870    1.3224 H         1 <0>         0.0000
     33 H14        -0.4144    2.7215    1.8566 H         1 <0>         0.0000
     34 H15        -0.4631    1.1994    2.7812 H         1 <0>         0.0000
     35 H16         2.6827    0.8079    0.9651 H         1 <0>         0.0000
     36 H17         1.9138    0.7626    2.5676 H         1 <0>         0.0000
     37 H18         2.1416    2.3179    1.7239 H         1 <0>         0.0000
     38 H19         1.6103    2.3224   -0.9725 H         1 <0>         0.0000
     39 H20         1.5494    1.8180   -2.6782 H         1 <0>         0.0000
     40 H21         3.0612    1.6736   -1.7564 H         1 <0>         0.0000
     41 H22         1.8510   -1.7999   -1.7861 H         1 <0>         0.0000
     42 H23         3.1642   -0.7288   -2.3039 H         1 <0>         0.0000
     43 H24         1.6113   -0.6992   -3.1741 H         1 <0>         0.0000
@<TRIPOS>BOND
     1    1    2 1
     2    1    3 2
     3    1   20 1
     4    2    4 2
     5    2   21 1
     6    3   14 1
     7    3   22 1
     8    4    5 1
     9    4   14 1
    10    5   13 1
    11    5   19 2
    12    6   14 1
    13    6   23 1
    14    6   24 1
    15    6   25 1
    16    7   15 1
    17    7   26 1
    18    7   27 1
    19    7   28 1
    20    8   15 1
    21    8   29 1
    22    8   30 1
    23    8   31 1
    24    9   16 1
    25    9   32 1
    26    9   33 1
    27    9   34 1
    28   10   16 1
    29   10   35 1
    30   10   36 1
    31   10   37 1
    32   11   17 1
    33   11   38 1
    34   11   39 1
    35   11   40 1
    36   12   17 1
    37   12   41 1
    38   12   42 1
    39   12   43 1
    40   13   18 2
    41   15   18 1
    42   16   18 1
    43   17   18 1
