@<TRIPOS>MOLECULE
*****
   31    32     0     0     0
SMALL
NO_CHARGES

@<TRIPOS>ATOM
      1 C1         -1.7645    1.2343   -5.2662 C.ar      1 <0>         0.0000
      2 C2         -2.8088    0.3305   -5.4758 C.ar      1 <0>         0.0000
      3 C3         -0.8367    0.9796   -4.2503 C.ar      1 <0>         0.0000
      4 C4         -2.9168   -0.8166   -4.6838 C.ar      1 <0>         0.0000
      5 C5         -0.9262   -0.1571   -3.4417 C.ar      1 <0>         0.0000
      6 C6         -1.9800   -1.0618   -3.6730 C.ar      1 <0>         0.0000
      7 C7          0.2367    2.1571   -0.3809 C.3       1 <0>         0.0000
      8 C8          1.0112    1.6658    0.8535 C.3       1 <0>         0.0000
      9 C9         -0.9514    1.2456   -0.7239 C.3       1 <0>         0.0000
     10 C10         1.5405    0.2349    0.6873 C.3       1 <0>         0.0000
     11 C11         0.0610   -0.4152   -2.3311 C.3       1 <0>         0.0000
     12 N1         -0.5609   -0.1521   -1.0136 N.pl3     1 <0>         0.0000
     13 O1          0.7135   -2.1836   -0.1242 O.2       1 <0>         0.0000
     14 O2         -0.7763   -0.8087    1.4309 O.2       1 <0>         0.0000
     15 O3         -2.0272   -2.1776   -2.8830 O.3       1 <0>         0.0000
     16 S1          0.1688   -0.8968    0.3137 S.o2      1 <0>         0.0000
     17 H1         -1.6732    2.1237   -5.8827 H         1 <0>         0.0000
     18 H2         -3.5415    0.5107   -6.2580 H         1 <0>         0.0000
     19 H3         -0.0201    1.6782   -4.0787 H         1 <0>         0.0000
     20 H4         -3.7271   -1.5240   -4.8542 H         1 <0>         0.0000
     21 H5         -0.1387    3.1697   -0.1966 H         1 <0>         0.0000
     22 H6          0.9151    2.2262   -1.2407 H         1 <0>         0.0000
     23 H7          1.8618    2.3267    1.0533 H         1 <0>         0.0000
     24 H8          0.3624    1.6991    1.7348 H         1 <0>         0.0000
     25 H9         -1.6630    1.2188    0.1049 H         1 <0>         0.0000
     26 H10        -1.4871    1.6136   -1.6016 H         1 <0>         0.0000
     27 H11         2.2470    0.1418   -0.1428 H         1 <0>         0.0000
     28 H12         2.0104   -0.1449    1.5984 H         1 <0>         0.0000
     29 H13         0.3660   -1.4617   -2.3305 H         1 <0>         0.0000
     30 H14         0.9562    0.2027   -2.4913 H         1 <0>         0.0000
     31 H15        -2.7922   -2.7196   -3.1327 H         1 <0>         0.0000
@<TRIPOS>BOND
     1    1    2 ar
     2    1    3 ar
     3    1   17 1
     4    2    4 ar
     5    2   18 1
     6    3    5 ar
     7    3   19 1
     8    4    6 ar
     9    4   20 1
    10    5    6 ar
    11    5   11 1
    12    6   15 1
    13    7    8 1
    14    7    9 1
    15    7   21 1
    16    7   22 1
    17    8   10 1
    18    8   23 1
    19    8   24 1
    20    9   12 1
    21    9   25 1
    22    9   26 1
    23   10   16 1
    24   10   27 1
    25   10   28 1
    26   11   12 1
    27   11   29 1
    28   11   30 1
    29   12   16 1
    30   13   16 2
    31   14   16 2
    32   15   31 1
