@<TRIPOS>MOLECULE
*****
   30    31     0     0     0
SMALL
NO_CHARGES

@<TRIPOS>ATOM
      1 C1         -1.8819    1.3771   -1.4903 C.ar      1 <0>         0.0000
      2 C2         -1.7276    2.1489   -0.3334 C.ar      1 <0>         0.0000
      3 C3         -1.1721    0.1848   -1.6148 C.ar      1 <0>         0.0000
      4 C4         -0.8468    1.7262    0.6568 C.ar      1 <0>         0.0000
      5 C5         -0.3035   -0.2891   -0.6138 C.ar      1 <0>         0.0000
      6 C6         -0.1269    0.5237    0.5261 C.ar      1 <0>         0.0000
      7 C7          1.1391   -2.1758    0.4067 C.3       1 <0>         0.0000
      8 C8          2.0108   -1.1280    1.0848 C.3       1 <0>         0.0000
      9 C9          0.4096   -1.6282   -0.8311 C.3       1 <0>         0.0000
     10 C10        -0.5224   -2.7093   -1.4323 C.3       1 <0>         0.0000
     11 C11        -1.8087   -2.9669   -0.6467 C.3       1 <0>         0.0000
     12 C12        -2.8544   -3.6692   -1.5186 C.3       1 <0>         0.0000
     13 O1         -1.5166   -3.7764    0.4853 O.3       1 <0>         0.0000
     14 F1         -3.2779   -2.8590   -2.5216 F         1 <0>         0.0000
     15 F2         -3.9490   -3.9950   -0.7778 F         1 <0>         0.0000
     16 F3         -2.3995   -4.8096   -2.0798 F         1 <0>         0.0000
     17 S1          0.9801    0.1554    1.8710 S.3       1 <0>         0.0000
     18 H1         -2.5472    1.6994   -2.2865 H         1 <0>         0.0000
     19 H2         -2.2736    3.0807   -0.2114 H         1 <0>         0.0000
     20 H3         -1.3073   -0.4015   -2.5190 H         1 <0>         0.0000
     21 H4         -0.6941    2.3389    1.5422 H         1 <0>         0.0000
     22 H5          1.7658   -3.0166    0.0845 H         1 <0>         0.0000
     23 H6          0.4223   -2.5746    1.1268 H         1 <0>         0.0000
     24 H7          2.5987   -1.5656    1.8960 H         1 <0>         0.0000
     25 H8          2.7011   -0.6549    0.3785 H         1 <0>         0.0000
     26 H9          1.1787   -1.4500   -1.5961 H         1 <0>         0.0000
     27 H10        -0.7917   -2.4359   -2.4547 H         1 <0>         0.0000
     28 H11         0.0238   -3.6555   -1.5004 H         1 <0>         0.0000
     29 H12        -2.2657   -2.0158   -0.3471 H         1 <0>         0.0000
     30 H13        -2.3070   -3.8193    1.0477 H         1 <0>         0.0000
@<TRIPOS>BOND
     1    1    2 ar
     2    1    3 ar
     3    1   18 1
     4    2    4 ar
     5    2   19 1
     6    3    5 ar
     7    3   20 1
     8    4    6 ar
     9    4   21 1
    10    5    6 ar
    11    5    9 1
    12    6   17 1
    13    7    8 1
    14    7    9 1
    15    7   22 1
    16    7   23 1
    17    8   17 1
    18    8   24 1
    19    8   25 1
    20    9   10 1
    21    9   26 1
    22   10   11 1
    23   10   27 1
    24   10   28 1
    25   11   12 1
    26   11   13 1
    27   11   29 1
    28   12   14 1
    29   12   15 1
    30   12   16 1
    31   13   30 1
