@<TRIPOS>MOLECULE
*****
   48    51     0     0     0
SMALL
NO_CHARGES

@<TRIPOS>ATOM
      1 C1          4.1930   -1.7585   -1.4481 C.ar      1 <0>         0.0000
      2 C2          4.5705   -3.5739    0.0942 C.ar      1 <0>         0.0000
      3 C3          2.8914   -1.9306    2.0203 C.ar      1 <0>         0.0000
      4 C4          1.5887   -1.3737    0.0682 C.ar      1 <0>         0.0000
      5 C5          5.2084   -2.2367   -2.2760 C.ar      1 <0>         0.0000
      6 C6          5.5943   -4.0591   -0.7210 C.ar      1 <0>         0.0000
      7 C7          1.8747   -1.4537    2.8473 C.ar      1 <0>         0.0000
      8 C8          0.5668   -0.8861    0.8842 C.ar      1 <0>         0.0000
      9 C9          9.4144   -4.5173    0.0086 C.ar      1 <0>         0.0000
     10 C10        10.7251   -4.6477   -2.0328 C.ar      1 <0>         0.0000
     11 C11        -0.9431    2.7157    1.1776 C.ar      1 <0>         0.0000
     12 C12        -2.1032    3.0511    3.2854 C.ar      1 <0>         0.0000
     13 C13        10.0996   -5.6212    0.5229 C.ar      1 <0>         0.0000
     14 C14        11.4056   -5.7560   -1.5250 C.ar      1 <0>         0.0000
     15 C15        -2.0143    3.2937    0.4913 C.ar      1 <0>         0.0000
     16 C16        -3.1786    3.6214    2.6019 C.ar      1 <0>         0.0000
     17 C17         3.8540   -2.4152   -0.2511 C.ar      1 <0>         0.0000
     18 C18         2.7692   -1.9011    0.6191 C.ar      1 <0>         0.0000
     19 C19         5.9026   -3.3880   -1.9036 C.ar      1 <0>         0.0000
     20 C20         0.7162   -0.9340    2.2696 C.ar      1 <0>         0.0000
     21 C21         9.7351   -4.0377   -1.2611 C.ar      1 <0>         0.0000
     22 C22        -0.9939    2.6031    2.5667 C.ar      1 <0>         0.0000
     23 C23        11.0874   -6.2335   -0.2507 C.ar      1 <0>         0.0000
     24 C24        -3.1253    3.7385    1.2102 C.ar      1 <0>         0.0000
     25 O1          6.8941   -3.9571   -2.7153 O.3       1 <0>         0.0000
     26 O2         -0.3687   -0.4917    3.0399 O.3       1 <0>         0.0000
     27 O3          9.0588   -2.8913   -1.6944 O.3       1 <0>         0.0000
     28 O4          0.1361    2.0740    3.2010 O.3       1 <0>         0.0000
     29 S1          8.2030   -2.9941   -3.1407 S.3       1 <0>         0.0000
     30 S2         -0.0821    0.7158    4.1718 S.3       1 <0>         0.0000
     31 Cl1        11.9459   -7.6267    0.3870 Cl        1 <0>         0.0000
     32 Cl2        -4.4790    4.4579    0.3532 Cl        1 <0>         0.0000
     33 H1          3.6708   -0.8473   -1.7259 H         1 <0>         0.0000
     34 H2          4.3108   -4.1173    0.9984 H         1 <0>         0.0000
     35 H3          3.8038   -2.3109    2.4709 H         1 <0>         0.0000
     36 H4          1.4556   -1.3650   -1.0100 H         1 <0>         0.0000
     37 H5          5.4710   -1.7153   -3.1916 H         1 <0>         0.0000
     38 H6          6.1443   -4.9598   -0.4654 H         1 <0>         0.0000
     39 H7          1.9839   -1.4691    3.9275 H         1 <0>         0.0000
     40 H8         -0.3523   -0.4874    0.4652 H         1 <0>         0.0000
     41 H9          8.6391   -4.0196    0.5829 H         1 <0>         0.0000
     42 H10        10.9579   -4.2651   -3.0218 H         1 <0>         0.0000
     43 H11        -0.0653    2.3572    0.6489 H         1 <0>         0.0000
     44 H12        -2.1293    2.9503    4.3661 H         1 <0>         0.0000
     45 H13         9.8644   -6.0048    1.5105 H         1 <0>         0.0000
     46 H14        12.1800   -6.2412   -2.1104 H         1 <0>         0.0000
     47 H15        -1.9887    3.3915   -0.5893 H         1 <0>         0.0000
     48 H16        -4.0483    3.9774    3.1448 H         1 <0>         0.0000
@<TRIPOS>BOND
     1    1    5 ar
     2    1   17 ar
     3    1   33 1
     4    2    6 ar
     5    2   17 ar
     6    2   34 1
     7    3    7 ar
     8    3   18 ar
     9    3   35 1
    10    4    8 ar
    11    4   18 ar
    12    4   36 1
    13    5   19 ar
    14    5   37 1
    15    6   19 ar
    16    6   38 1
    17    7   20 ar
    18    7   39 1
    19    8   20 ar
    20    8   40 1
    21    9   13 ar
    22    9   21 ar
    23    9   41 1
    24   10   14 ar
    25   10   21 ar
    26   10   42 1
    27   11   15 ar
    28   11   22 ar
    29   11   43 1
    30   12   16 ar
    31   12   22 ar
    32   12   44 1
    33   13   23 ar
    34   13   45 1
    35   14   23 ar
    36   14   46 1
    37   15   24 ar
    38   15   47 1
    39   16   24 ar
    40   16   48 1
    41   17   18 1
    42   19   25 1
    43   20   26 1
    44   21   27 1
    45   22   28 1
    46   23   31 1
    47   24   32 1
    48   25   29 1
    49   26   30 1
    50   27   29 1
    51   28   30 1
