@<TRIPOS>MOLECULE
*****
   19    20     0     0     0
SMALL
NO_CHARGES

@<TRIPOS>ATOM
      1 C1         -0.1436   -1.2640   -1.2425 C.ar      1 <0>         0.0000
      2 C2          2.0668   -0.2052   -1.1908 C.ar      1 <0>         0.0000
      3 C3          1.3870   -1.4261   -3.1713 C.ar      1 <0>         0.0000
      4 C4          0.8336   -0.5107   -0.6023 C.ar      1 <0>         0.0000
      5 C5          0.1540   -1.7119   -2.5298 C.ar      1 <0>         0.0000
      6 C6          2.3408   -0.6629   -2.4754 C.ar      1 <0>         0.0000
      7 C7          0.4654   -2.6058   -4.7929 C.2       1 <0>         0.0000
      8 C8          0.0245    1.1269    0.8877 C.3       1 <0>         0.0000
      9 N1          1.5262   -1.9469   -4.4460 N.2       1 <0>         0.0000
     10 O1          0.6042   -0.0913    0.7226 O.3       1 <0>         0.0000
     11 F1         -1.1996    1.2006    0.3149 F         1 <0>         0.0000
     12 F2          0.7640    2.1301    0.3626 F         1 <0>         0.0000
     13 F3         -0.1086    1.3393    2.2005 F         1 <0>         0.0000
     14 S1         -0.8485   -2.6745   -3.5981 S.3       1 <0>         0.0000
     15 S2          0.2479   -3.4180   -6.3378 S.3       1 <0>         0.0000
     16 Br1         4.0151   -0.2536   -3.2860 Br        1 <0>         0.0000
     17 H1         -1.0823   -1.4826   -0.7455 H         1 <0>         0.0000
     18 H2          2.7931    0.3804   -0.6392 H         1 <0>         0.0000
     19 H3          1.4642   -3.0574   -6.7959 H         1 <0>         0.0000
@<TRIPOS>BOND
     1    1    4 ar
     2    1    5 ar
     3    1   17 1
     4    2    4 ar
     5    2    6 ar
     6    2   18 1
     7    3    5 ar
     8    3    6 ar
     9    3    9 1
    10    4   10 1
    11    5   14 1
    12    6   16 1
    13    7    9 2
    14    7   14 1
    15    7   15 1
    16    8   10 1
    17    8   11 1
    18    8   12 1
    19    8   13 1
    20   15   19 1
