@<TRIPOS>MOLECULE
*****
   17    18     0     0     0
SMALL
NO_CHARGES

@<TRIPOS>ATOM
      1 C1          1.4071   -0.0589    1.6571 C.ar      1 <0>         0.0000
      2 C2          0.2500   -0.3882    0.9441 C.ar      1 <0>         0.0000
      3 C3          1.6184   -0.6455    2.9023 C.ar      1 <0>         0.0000
      4 C4         -0.6463   -1.2962    1.5175 C.ar      1 <0>         0.0000
      5 C5          1.6031   -2.8005    6.6009 C.2       1 <0>         0.0000
      6 C6          0.4178   -3.4416    6.3936 C.2       1 <0>         0.0000
      7 C7          0.6543   -1.5457    3.3872 C.ar      1 <0>         0.0000
      8 C8          0.8625   -2.1720    4.6973 C.2       1 <0>         0.0000
      9 N1         -0.4612   -1.8699    2.7114 N.ar      1 <0>         0.0000
     10 N2          1.8744   -1.9922    5.5079 N.2       1 <0>         0.0000
     11 O1         -0.0677   -3.0468    5.1754 O.3       1 <0>         0.0000
     12 H1          2.1308    0.6421    1.2495 H         1 <0>         0.0000
     13 H2          0.0428    0.0441   -0.0306 H         1 <0>         0.0000
     14 H3          2.4966   -0.4290    3.5010 H         1 <0>         0.0000
     15 H4         -1.5578   -1.5763    0.9915 H         1 <0>         0.0000
     16 H5          2.2717   -2.8629    7.4489 H         1 <0>         0.0000
     17 H6         -0.1803   -4.1482    6.9493 H         1 <0>         0.0000
@<TRIPOS>BOND
     1    1    2 ar
     2    1    3 ar
     3    1   12 1
     4    2    4 ar
     5    2   13 1
     6    3    7 ar
     7    3   14 1
     8    4    9 ar
     9    4   15 1
    10    5    6 2
    11    5   10 1
    12    5   16 1
    13    6   11 1
    14    6   17 1
    15    7    8 1
    16    7    9 ar
    17    8   10 2
    18    8   11 1
