@<TRIPOS>MOLECULE
*****
   30    32     0     0     0
SMALL
NO_CHARGES

@<TRIPOS>ATOM
      1 C1         -0.1812    1.9784    0.0662 C.2       1 <0>         0.0000
      2 C2         -1.5222    2.1022   -0.1468 C.2       1 <0>         0.0000
      3 C3          0.0744    0.5591    0.1155 C.2       1 <0>         0.0000
      4 C4         -1.1289   -0.0642   -0.0759 C.2       1 <0>         0.0000
      5 C5          3.4675   -0.3053   -0.9627 C.cat     1 <0>         0.0000
      6 C6         -1.4178   -1.5252   -0.0737 C.3       1 <0>         0.0000
      7 C7         -0.0823   -2.2838   -0.2096 C.3       1 <0>         0.0000
      8 C8          1.0140   -1.6841    0.6862 C.3       1 <0>         0.0000
      9 C9          5.6771   -0.3081   -1.6477 C.3       1 <0>         0.0000
     10 C10         5.5460   -0.8101   -0.1990 C.3       1 <0>         0.0000
     11 C11         1.3324   -0.2157    0.3406 C.3       1 <0>         0.0000
     12 N1          4.2581   -0.2868   -2.0472 N.pl3     1 <0>         0.0000
     13 N2          2.1664   -0.1229   -0.9140 N.pl3     1 <0>         0.0000
     14 O1         -2.1119    0.8623   -0.2341 O.3       1 <0>         0.0000
     15 O2          4.1394   -0.5451    0.1513 O.3       1 <0>         0.0000
     16 H1          0.5228    2.7913    0.1901 H         1 <0>         0.0000
     17 H2         -2.1880    2.9466   -0.2509 H         1 <0>         0.0000
     18 H3         -1.9198   -1.8009    0.8626 H         1 <0>         0.0000
     19 H4         -2.1025   -1.7892   -0.8859 H         1 <0>         0.0000
     20 H5         -0.2275   -3.3362    0.0482 H         1 <0>         0.0000
     21 H6          0.2443   -2.2622   -1.2571 H         1 <0>         0.0000
     22 H7          0.6885   -1.7030    1.7324 H         1 <0>         0.0000
     23 H8          1.9296   -2.2811    0.6307 H         1 <0>         0.0000
     24 H9          6.1126    0.6933   -1.7095 H         1 <0>         0.0000
     25 H10         6.2473   -0.9955   -2.2739 H         1 <0>         0.0000
     26 H11         5.6969   -1.8860   -0.1033 H         1 <0>         0.0000
     27 H12         6.1605   -0.2718    0.5196 H         1 <0>         0.0000
     28 H13         1.9409    0.2304    1.1307 H         1 <0>         0.0000
     29 H14         3.9435    0.0401   -2.9533 H         1 <0>         0.0000
     30 H15         1.6714    0.0959   -1.7727 H         1 <0>         0.0000
@<TRIPOS>BOND
     1    1    2 2
     2    1    3 1
     3    1   16 1
     4    2   14 1
     5    2   17 1
     6    3    4 2
     7    3   11 1
     8    4    6 1
     9    4   14 1
    10    5   12 1
    11    5   13 2
    12    5   15 1
    13    6    7 1
    14    6   18 1
    15    6   19 1
    16    7    8 1
    17    7   20 1
    18    7   21 1
    19    8   11 1
    20    8   22 1
    21    8   23 1
    22    9   10 1
    23    9   12 1
    24    9   24 1
    25    9   25 1
    26   10   15 1
    27   10   26 1
    28   10   27 1
    29   11   13 1
    30   11   28 1
    31   12   29 1
    32   13   30 1
