@<TRIPOS>MOLECULE
*****
   41    42     0     0     0
SMALL
NO_CHARGES

@<TRIPOS>ATOM
      1 C1          3.3783   -1.1254    2.2886 C.ar      1 <0>         0.0000
      2 C2          2.9096    0.1893    2.3534 C.ar      1 <0>         0.0000
      3 C3          2.7390   -2.0456    1.4507 C.ar      1 <0>         0.0000
      4 C4          1.8113    0.5826    1.5830 C.ar      1 <0>         0.0000
      5 C5          1.6423   -1.6486    0.6837 C.ar      1 <0>         0.0000
      6 C6         -5.7436    0.4982    1.7497 C.ar      1 <0>         0.0000
      7 C7         -5.3806   -1.6555    2.8287 C.ar      1 <0>         0.0000
      8 C8         -4.3687    0.7028    1.6997 C.ar      1 <0>         0.0000
      9 C9         -4.0014   -1.4500    2.7746 C.ar      1 <0>         0.0000
     10 C10         1.1688   -0.3293    0.7377 C.ar      1 <0>         0.0000
     11 C11        -6.2500   -0.6834    2.3135 C.ar      1 <0>         0.0000
     12 C12        -3.5059   -0.2762    2.2065 C.ar      1 <0>         0.0000
     13 C13        -0.8480    0.4809   -2.4810 C.2       1 <0>         0.0000
     14 C14        -1.5256    0.7496   -4.7314 C.3       1 <0>         0.0000
     15 C15         0.1709   -0.1834   -1.5757 C.3       1 <0>         0.0000
     16 C16        -1.3418   -0.5292    0.4125 C.3       1 <0>         0.0000
     17 C17        -0.0347    0.1110   -0.0793 C.3       1 <0>         0.0000
     18 O1         -1.7470    1.2206   -2.1247 O.2       1 <0>         0.0000
     19 O2         -1.4757    1.4289    2.2174 O.2       1 <0>         0.0000
     20 O3         -1.1002   -0.9629    3.0631 O.2       1 <0>         0.0000
     21 O4         -7.6104   -0.8282    2.3368 O.3       1 <0>         0.0000
     22 O5         -0.6247    0.1516   -3.7737 O.3       1 <0>         0.0000
     23 S1         -1.7333   -0.0203    2.1258 S.o2      1 <0>         0.0000
     24 H1          4.2297   -1.4338    2.8900 H         1 <0>         0.0000
     25 H2          3.3913    0.9081    3.0113 H         1 <0>         0.0000
     26 H3          3.0920   -3.0726    1.3996 H         1 <0>         0.0000
     27 H4          1.4306    1.5975    1.6590 H         1 <0>         0.0000
     28 H5          1.1503   -2.3801    0.0459 H         1 <0>         0.0000
     29 H6         -6.4387    1.2405    1.3696 H         1 <0>         0.0000
     30 H7         -5.7782   -2.5643    3.2772 H         1 <0>         0.0000
     31 H8         -3.9614    1.6206    1.2860 H         1 <0>         0.0000
     32 H9         -3.3115   -2.1809    3.1852 H         1 <0>         0.0000
     33 H10        -1.2000    0.3820   -5.7041 H         1 <0>         0.0000
     34 H11        -1.4582    1.8389   -4.6877 H         1 <0>         0.0000
     35 H12        -2.5546    0.4442   -4.5278 H         1 <0>         0.0000
     36 H13         1.1614    0.1692   -1.8832 H         1 <0>         0.0000
     37 H14         0.1642   -1.2576   -1.7877 H         1 <0>         0.0000
     38 H15        -2.1818   -0.1921   -0.1969 H         1 <0>         0.0000
     39 H16        -1.3008   -1.6214    0.4259 H         1 <0>         0.0000
     40 H17        -0.1535    1.1913    0.0324 H         1 <0>         0.0000
     41 H18        -7.8380   -1.6709    2.7614 H         1 <0>         0.0000
@<TRIPOS>BOND
     1    1    3 ar
     2    1    2 ar
     3    1   24 1
     4    2    4 ar
     5    2   25 1
     6    3    5 ar
     7    3   26 1
     8    4   10 ar
     9    4   27 1
    10    5   10 ar
    11    5   28 1
    12    6    8 ar
    13    6   11 ar
    14    6   29 1
    15    7    9 ar
    16    7   11 ar
    17    7   30 1
    18    8   12 ar
    19    8   31 1
    20    9   12 ar
    21    9   32 1
    22   10   17 1
    23   11   21 1
    24   12   23 1
    25   13   15 1
    26   13   18 2
    27   13   22 1
    28   14   22 1
    29   14   33 1
    30   14   34 1
    31   14   35 1
    32   15   17 1
    33   15   36 1
    34   15   37 1
    35   16   17 1
    36   16   23 1
    37   16   38 1
    38   16   39 1
    39   17   40 1
    40   19   23 2
    41   20   23 2
    42   21   41 1
