@<TRIPOS>MOLECULE
*****
   41    42     0     0     0
SMALL
NO_CHARGES

@<TRIPOS>ATOM
      1 C1          3.8296   -0.6534    0.7865 C.ar      1 <0>         0.0000
      2 C2          3.2970    0.6382    0.8312 C.ar      1 <0>         0.0000
      3 C3          3.1552   -1.6543    0.0794 C.ar      1 <0>         0.0000
      4 C4          2.0988    0.9258    0.1729 C.ar      1 <0>         0.0000
      5 C5          1.9569   -1.3627   -0.5752 C.ar      1 <0>         0.0000
      6 C6         -5.4293    0.1365    1.3846 C.ar      1 <0>         0.0000
      7 C7         -4.5405   -1.8560    2.4689 C.ar      1 <0>         0.0000
      8 C8         -4.1336    0.5596    1.1058 C.ar      1 <0>         0.0000
      9 C9         -3.2423   -1.4303    2.1876 C.ar      1 <0>         0.0000
     10 C10         1.4159   -0.0703   -0.5342 C.ar      1 <0>         0.0000
     11 C11        -5.6330   -1.0746    2.0643 C.ar      1 <0>         0.0000
     12 C12        -3.0481   -0.2302    1.5016 C.ar      1 <0>         0.0000
     13 C13         1.3075    0.3557   -3.4820 C.2       1 <0>         0.0000
     14 C14         2.6672    2.2464   -3.8863 C.3       1 <0>         0.0000
     15 C15         0.1062   -0.1643   -2.7170 C.3       1 <0>         0.0000
     16 C16        -1.1065   -0.3852   -0.5429 C.3       1 <0>         0.0000
     17 C17         0.1064    0.2592   -1.2310 C.3       1 <0>         0.0000
     18 O1          2.0040   -0.3134   -4.2195 O.2       1 <0>         0.0000
     19 O2         -1.3893    1.7725    0.9847 O.2       1 <0>         0.0000
     20 O3         -0.4701   -0.3600    2.0761 O.2       1 <0>         0.0000
     21 O4         -6.9275   -1.4382    2.3114 O.3       1 <0>         0.0000
     22 O5          1.5031    1.6743   -3.2541 O.3       1 <0>         0.0000
     23 S1         -1.3786    0.3044    1.1295 S.o2      1 <0>         0.0000
     24 H1          4.7612   -0.8796    1.2989 H         1 <0>         0.0000
     25 H2          3.8102    1.4208    1.3842 H         1 <0>         0.0000
     26 H3          3.5637   -2.6608    0.0363 H         1 <0>         0.0000
     27 H4          1.6777    1.9265    0.2229 H         1 <0>         0.0000
     28 H5          1.4483   -2.1520   -1.1244 H         1 <0>         0.0000
     29 H6         -6.2914    0.7310    1.0983 H         1 <0>         0.0000
     30 H7         -4.7026   -2.7864    3.0100 H         1 <0>         0.0000
     31 H8         -3.9561    1.5070    0.6055 H         1 <0>         0.0000
     32 H9         -2.3840   -2.0090    2.5151 H         1 <0>         0.0000
     33 H10         2.6708    3.2959   -3.5927 H         1 <0>         0.0000
     34 H11         2.5993    2.1477   -4.9720 H         1 <0>         0.0000
     35 H12         3.5698    1.7438   -3.5317 H         1 <0>         0.0000
     36 H13         0.1052   -1.2499   -2.8315 H         1 <0>         0.0000
     37 H14        -0.7976    0.2212   -3.2043 H         1 <0>         0.0000
     38 H15        -2.0272   -0.1785   -1.0967 H         1 <0>         0.0000
     39 H16        -0.9949   -1.4650   -0.4165 H         1 <0>         0.0000
     40 H17        -0.0352    1.3415   -1.1963 H         1 <0>         0.0000
     41 H18        -6.9413   -2.2776    2.7989 H         1 <0>         0.0000
@<TRIPOS>BOND
     1    1    3 ar
     2    1    2 ar
     3    1   24 1
     4    2    4 ar
     5    2   25 1
     6    3    5 ar
     7    3   26 1
     8    4   10 ar
     9    4   27 1
    10    5   10 ar
    11    5   28 1
    12    6    8 ar
    13    6   11 ar
    14    6   29 1
    15    7    9 ar
    16    7   11 ar
    17    7   30 1
    18    8   12 ar
    19    8   31 1
    20    9   12 ar
    21    9   32 1
    22   10   17 1
    23   11   21 1
    24   12   23 1
    25   13   15 1
    26   13   18 2
    27   13   22 1
    28   14   22 1
    29   14   33 1
    30   14   34 1
    31   14   35 1
    32   15   17 1
    33   15   36 1
    34   15   37 1
    35   16   17 1
    36   16   23 1
    37   16   38 1
    38   16   39 1
    39   17   40 1
    40   19   23 2
    41   20   23 2
    42   21   41 1
