@<TRIPOS>MOLECULE
*****
   48    51     0     0     0
SMALL
NO_CHARGES

@<TRIPOS>ATOM
      1 C1          4.4918   -1.6568   -1.2982 C.ar      1 <0>         0.0000
      2 C2          4.8561   -3.1912    0.5263 C.ar      1 <0>         0.0000
      3 C3          3.1219   -1.2852    2.1288 C.ar      1 <0>         0.0000
      4 C4          1.8571   -1.0541    0.0879 C.ar      1 <0>         0.0000
      5 C5          5.5368   -2.2482   -2.0095 C.ar      1 <0>         0.0000
      6 C6          5.8974   -3.7966   -0.1765 C.ar      1 <0>         0.0000
      7 C7          2.0860   -0.6920    2.8498 C.ar      1 <0>         0.0000
      8 C8          0.8163   -0.4515    0.7962 C.ar      1 <0>         0.0000
      9 C9          8.9612   -0.7220   -3.0615 C.ar      1 <0>         0.0000
     10 C10        10.6308   -2.4106   -3.5755 C.ar      1 <0>         0.0000
     11 C11        -0.7469    3.1253    0.4746 C.ar      1 <0>         0.0000
     12 C12        -1.9457    3.7764    2.4848 C.ar      1 <0>         0.0000
     13 C13         9.2835   -0.0402   -4.2378 C.ar      1 <0>         0.0000
     14 C14        10.9493   -1.7361   -4.7556 C.ar      1 <0>         0.0000
     15 C15        -1.8152    3.5673   -0.3102 C.ar      1 <0>         0.0000
     16 C16        -3.0180    4.2111    1.7038 C.ar      1 <0>         0.0000
     17 C17         4.1345   -2.1130   -0.0178 C.ar      1 <0>         0.0000
     18 C18         3.0286   -1.4781    0.7383 C.ar      1 <0>         0.0000
     19 C19         6.2303   -3.3173   -1.4437 C.ar      1 <0>         0.0000
     20 C20         0.9374   -0.2789    2.1744 C.ar      1 <0>         0.0000
     21 C21         9.6395   -1.8968   -2.7383 C.ar      1 <0>         0.0000
     22 C22        -0.8186    3.2370    1.8629 C.ar      1 <0>         0.0000
     23 C23        10.2732   -0.5557   -5.0767 C.ar      1 <0>         0.0000
     24 C24        -2.9439    4.1035    0.3123 C.ar      1 <0>         0.0000
     25 O1          7.2281   -3.9071   -2.2326 O.3       1 <0>         0.0000
     26 O2         -0.1644    0.2709    2.8449 O.3       1 <0>         0.0000
     27 O3          9.3172   -2.4996   -1.5167 O.3       1 <0>         0.0000
     28 O4          0.3085    2.8354    2.5893 O.3       1 <0>         0.0000
     29 S1          8.7569   -4.0870   -1.5607 S.3       1 <0>         0.0000
     30 S2          0.0925    1.6514    3.7668 S.3       1 <0>         0.0000
     31 Cl1        10.6767    0.2923   -6.5609 Cl        1 <0>         0.0000
     32 Cl2        -4.2936    4.6523   -0.6683 Cl        1 <0>         0.0000
     33 H1          3.9707   -0.8075   -1.7312 H         1 <0>         0.0000
     34 H2          4.5778   -3.5854    1.4997 H         1 <0>         0.0000
     35 H3          4.0267   -1.5818    2.6518 H         1 <0>         0.0000
     36 H4          1.7459   -1.2177   -0.9804 H         1 <0>         0.0000
     37 H5          5.8255   -1.8928   -2.9941 H         1 <0>         0.0000
     38 H6          6.4430   -4.6328    0.2501 H         1 <0>         0.0000
     39 H7          2.1726   -0.5362    3.9210 H         1 <0>         0.0000
     40 H8         -0.0960   -0.1317    0.3015 H         1 <0>         0.0000
     41 H9          8.1945   -0.3502   -2.3887 H         1 <0>         0.0000
     42 H10        11.1440   -3.3302   -3.3114 H         1 <0>         0.0000
     43 H11         0.1443    2.7009    0.0226 H         1 <0>         0.0000
     44 H12        -1.9878    3.8503    3.5671 H         1 <0>         0.0000
     45 H13         8.7676    0.8774   -4.5022 H         1 <0>         0.0000
     46 H14        11.7191   -2.1195   -5.4175 H         1 <0>         0.0000
     47 H15        -1.7736    3.4902   -1.3919 H         1 <0>         0.0000
     48 H16        -3.9013    4.6353    2.1704 H         1 <0>         0.0000
@<TRIPOS>BOND
     1    1    5 ar
     2    1   17 ar
     3    1   33 1
     4    2    6 ar
     5    2   17 ar
     6    2   34 1
     7    3    7 ar
     8    3   18 ar
     9    3   35 1
    10    4    8 ar
    11    4   18 ar
    12    4   36 1
    13    5   19 ar
    14    5   37 1
    15    6   19 ar
    16    6   38 1
    17    7   20 ar
    18    7   39 1
    19    8   20 ar
    20    8   40 1
    21    9   13 ar
    22    9   21 ar
    23    9   41 1
    24   10   14 ar
    25   10   21 ar
    26   10   42 1
    27   11   15 ar
    28   11   22 ar
    29   11   43 1
    30   12   16 ar
    31   12   22 ar
    32   12   44 1
    33   13   23 ar
    34   13   45 1
    35   14   23 ar
    36   14   46 1
    37   15   24 ar
    38   15   47 1
    39   16   24 ar
    40   16   48 1
    41   17   18 1
    42   19   25 1
    43   20   26 1
    44   21   27 1
    45   22   28 1
    46   23   31 1
    47   24   32 1
    48   25   29 1
    49   26   30 1
    50   27   29 1
    51   28   30 1
