@<TRIPOS>MOLECULE
*****
   18    19     0     0     0
SMALL
NO_CHARGES

@<TRIPOS>ATOM
      1 C1          0.4477   -0.1070    1.1847 C.1       1 <0>         0.0000
      2 C2         -0.3154   -2.4828   -0.2857 C.ar      1 <0>         0.0000
      3 C3         -0.5876   -2.3005   -2.9460 C.ar      1 <0>         0.0000
      4 C4         -0.0960   -1.2721   -0.9578 C.ar      1 <0>         0.0000
      5 C5         -0.8016   -3.5007   -2.2505 C.ar      1 <0>         0.0000
      6 C6          1.2298    0.9704   -0.9743 C.3       1 <0>         0.0000
      7 C7         -0.2080    1.3260   -0.8029 C.3       1 <0>         0.0000
      8 C8          0.2993   -0.0160   -0.2496 C.3       1 <0>         0.0000
      9 N1          0.5693   -0.1730    2.3408 N.1       1 <0>         0.0000
     10 N2         -0.2363   -1.1961   -2.2920 N.ar      1 <0>         0.0000
     11 N3         -0.6691   -3.5962   -0.9421 N.ar      1 <0>         0.0000
     12 Br1        -1.3067   -5.0699   -3.2305 Br        1 <0>         0.0000
     13 H1         -0.2065   -2.5627    0.7927 H         1 <0>         0.0000
     14 H2         -0.7017   -2.2411   -4.0249 H         1 <0>         0.0000
     15 H3          1.5569    0.6416   -1.9548 H         1 <0>         0.0000
     16 H4          1.9717    1.4710   -0.3616 H         1 <0>         0.0000
     17 H5         -0.4800    2.0773   -0.0694 H         1 <0>         0.0000
     18 H6         -0.8578    1.2384   -1.6668 H         1 <0>         0.0000
@<TRIPOS>BOND
     1    1    8 1
     2    1    9 3
     3    2    4 ar
     4    2   11 ar
     5    2   13 1
     6    3    5 ar
     7    3   10 ar
     8    3   14 1
     9    4    8 1
    10    4   10 ar
    11    5   11 ar
    12    5   12 1
    13    6    7 1
    14    6    8 1
    15    6   15 1
    16    6   16 1
    17    7    8 1
    18    7   17 1
    19    7   18 1
