@<TRIPOS>MOLECULE
*****
   31    32     0     0     0
SMALL
NO_CHARGES

@<TRIPOS>ATOM
      1 C1         -2.7142   -2.9396   -3.9070 C.ar      1 <0>         0.0000
      2 C2         -2.0604   -2.6421   -5.1076 C.ar      1 <0>         0.0000
      3 C3         -2.0759   -2.6702   -2.6951 C.ar      1 <0>         0.0000
      4 C4         -0.7846   -2.0751   -5.0891 C.ar      1 <0>         0.0000
      5 C5         -0.7940   -2.1091   -2.6518 C.ar      1 <0>         0.0000
      6 C6         -0.1586   -1.8055   -3.8654 C.ar      1 <0>         0.0000
      7 C7          0.7259    1.2521   -1.2181 C.3       1 <0>         0.0000
      8 C8          1.1487    1.4802    0.2431 C.3       1 <0>         0.0000
      9 C9         -0.6745    0.6321   -1.3329 C.3       1 <0>         0.0000
     10 C10         1.1273    0.1905    1.0757 C.3       1 <0>         0.0000
     11 C11        -0.1336   -1.8257   -1.3230 C.3       1 <0>         0.0000
     12 N1         -0.8016   -0.6812   -0.6556 N.pl3     1 <0>         0.0000
     13 O1         -0.4706   -1.9163    1.5571 O.2       1 <0>         0.0000
     14 O2         -1.4731    0.4316    1.5289 O.2       1 <0>         0.0000
     15 O3          1.0922   -1.2233   -3.8070 O.3       1 <0>         0.0000
     16 S1         -0.5256   -0.5583    1.0084 S.o2      1 <0>         0.0000
     17 H1         -3.7080   -3.3777   -3.9170 H         1 <0>         0.0000
     18 H2         -2.5407   -2.8481   -6.0604 H         1 <0>         0.0000
     19 H3         -2.5746   -2.8866   -1.7535 H         1 <0>         0.0000
     20 H4         -0.2772   -1.8381   -6.0233 H         1 <0>         0.0000
     21 H5          0.7252    2.2113   -1.7478 H         1 <0>         0.0000
     22 H6          1.4538    0.6125   -1.7293 H         1 <0>         0.0000
     23 H7          2.1620    1.8949    0.2814 H         1 <0>         0.0000
     24 H8          0.4829    2.2107    0.7139 H         1 <0>         0.0000
     25 H9         -1.4266    1.2933   -0.8960 H         1 <0>         0.0000
     26 H10        -0.9450    0.4730   -2.3790 H         1 <0>         0.0000
     27 H11         1.8215   -0.5657    0.6977 H         1 <0>         0.0000
     28 H12         1.3388    0.3707    2.1329 H         1 <0>         0.0000
     29 H13        -0.2510   -2.6854   -0.6631 H         1 <0>         0.0000
     30 H14         0.9380   -1.6512   -1.4657 H         1 <0>         0.0000
     31 H15         1.4185   -1.0920   -4.7112 H         1 <0>         0.0000
@<TRIPOS>BOND
     1    1    2 ar
     2    1    3 ar
     3    1   17 1
     4    2    4 ar
     5    2   18 1
     6    3    5 ar
     7    3   19 1
     8    4    6 ar
     9    4   20 1
    10    5    6 ar
    11    5   11 1
    12    6   15 1
    13    7    8 1
    14    7    9 1
    15    7   21 1
    16    7   22 1
    17    8   10 1
    18    8   23 1
    19    8   24 1
    20    9   12 1
    21    9   25 1
    22    9   26 1
    23   10   16 1
    24   10   27 1
    25   10   28 1
    26   11   12 1
    27   11   29 1
    28   11   30 1
    29   12   16 1
    30   13   16 2
    31   14   16 2
    32   15   31 1
