@<TRIPOS>MOLECULE
*****
   20    21     0     0     0
SMALL
NO_CHARGES

@<TRIPOS>ATOM
      1 C1          1.9111   -0.7119   -0.0591 C.ar      1 <0>         0.0000
      2 C2          1.7660   -1.5202    2.6209 C.ar      1 <0>         0.0000
      3 C3          0.9044    2.7525   -2.3849 C.2       1 <0>         0.0000
      4 C4         -0.3986    3.0803   -2.6836 C.2       1 <0>         0.0000
      5 C5          0.7861   -0.3485    0.7041 C.ar      1 <0>         0.0000
      6 C6          2.9236   -1.4744    0.4969 C.ar      1 <0>         0.0000
      7 C7          0.7460   -0.7697    2.0439 C.ar      1 <0>         0.0000
      8 C8          2.8530   -1.8762    1.8324 C.ar      1 <0>         0.0000
      9 C9         -0.1079    1.3954   -0.9634 C.2       1 <0>         0.0000
     10 C10        -0.3648    0.3965    0.1107 C.2       1 <0>         0.0000
     11 N1          1.0569    1.8020   -1.4127 N.2       1 <0>         0.0000
     12 O1         -1.5193    0.2114    0.4815 O.2       1 <0>         0.0000
     13 F1          3.9913   -1.8362   -0.2441 F         1 <0>         0.0000
     14 F2         -0.2815   -0.4210    2.8372 F         1 <0>         0.0000
     15 F3          3.8485   -2.6104    2.3559 F         1 <0>         0.0000
     16 S1         -1.4909    2.1701   -1.7135 S.3       1 <0>         0.0000
     17 H1          2.0006   -0.4005   -1.0919 H         1 <0>         0.0000
     18 H2          1.7133   -1.8202    3.6618 H         1 <0>         0.0000
     19 H3          1.7812    3.1869   -2.8528 H         1 <0>         0.0000
     20 H4         -0.7529    3.8002   -3.4105 H         1 <0>         0.0000
@<TRIPOS>BOND
     1    1    5 ar
     2    1    6 ar
     3    1   17 1
     4    2    7 ar
     5    2    8 ar
     6    2   18 1
     7    3    4 2
     8    3   11 1
     9    3   19 1
    10    4   16 1
    11    4   20 1
    12    5    7 ar
    13    5   10 1
    14    6    8 ar
    15    6   13 1
    16    7   14 1
    17    8   15 1
    18    9   10 1
    19    9   11 2
    20    9   16 1
    21   10   12 2
