@<TRIPOS>MOLECULE
*****
   48    51     0     0     0
SMALL
NO_CHARGES

@<TRIPOS>ATOM
      1 C1          5.0868   -1.7176   -0.7646 C.ar      1 <0>         0.0000
      2 C2          3.5414   -3.5493   -1.0151 C.ar      1 <0>         0.0000
      3 C3          2.0125   -2.2276    1.2494 C.ar      1 <0>         0.0000
      4 C4          2.6756   -0.1551    0.2137 C.ar      1 <0>         0.0000
      5 C5          6.0260   -2.3981   -1.5387 C.ar      1 <0>         0.0000
      6 C6          4.4732   -4.2491   -1.7835 C.ar      1 <0>         0.0000
      7 C7          1.0738   -1.5528    2.0314 C.ar      1 <0>         0.0000
      8 C8          1.7371    0.5340    0.9812 C.ar      1 <0>         0.0000
      9 C9          7.9818   -7.2727   -2.4399 C.ar      1 <0>         0.0000
     10 C10         6.4619   -8.9664   -3.2963 C.ar      1 <0>         0.0000
     11 C11        -1.7056   -1.2721    6.5976 C.ar      1 <0>         0.0000
     12 C12        -0.4507    0.6764    5.8624 C.ar      1 <0>         0.0000
     13 C13         8.8699   -8.2776   -2.0469 C.ar      1 <0>         0.0000
     14 C14         7.3457   -9.9698   -2.8946 C.ar      1 <0>         0.0000
     15 C15        -1.6176   -0.8358    7.9209 C.ar      1 <0>         0.0000
     16 C16        -0.3714    1.1170    7.1863 C.ar      1 <0>         0.0000
     17 C17         3.8260   -2.2768   -0.4908 C.ar      1 <0>         0.0000
     18 C18         2.8296   -1.5480    0.3295 C.ar      1 <0>         0.0000
     19 C19         5.7115   -3.6601   -2.0445 C.ar      1 <0>         0.0000
     20 C20         0.9405   -0.1711    1.8842 C.ar      1 <0>         0.0000
     21 C21         6.7863   -7.6277   -3.0684 C.ar      1 <0>         0.0000
     22 C22        -1.1248   -0.5135    5.5797 C.ar      1 <0>         0.0000
     23 C23         8.5465   -9.6162   -2.2752 C.ar      1 <0>         0.0000
     24 C24        -0.9534    0.3596    8.2045 C.ar      1 <0>         0.0000
     25 O1          6.7271   -4.3060   -2.7635 O.3       1 <0>         0.0000
     26 O2          0.0593    0.5954    2.6598 O.3       1 <0>         0.0000
     27 O3          5.8208   -6.6894   -3.4506 O.3       1 <0>         0.0000
     28 O4         -1.2113   -1.0488    4.2894 O.3       1 <0>         0.0000
     29 S1          6.3200   -5.2241   -4.1084 S.3       1 <0>         0.0000
     30 S2         -1.4708   -0.0107    2.9916 S.3       1 <0>         0.0000
     31 Cl1         9.6642  -10.8747   -1.7724 Cl        1 <0>         0.0000
     32 Cl2        -0.8462    0.9162    9.8671 Cl        1 <0>         0.0000
     33 H1          5.3469   -0.7474   -0.3509 H         1 <0>         0.0000
     34 H2          2.5675   -3.9968   -0.8373 H         1 <0>         0.0000
     35 H3          2.1358   -3.2982    1.3866 H         1 <0>         0.0000
     36 H4          3.2706    0.3939   -0.5107 H         1 <0>         0.0000
     37 H5          7.0018   -1.9698   -1.7480 H         1 <0>         0.0000
     38 H6          4.2392   -5.2340   -2.1728 H         1 <0>         0.0000
     39 H7          0.4710   -2.0891    2.7563 H         1 <0>         0.0000
     40 H8          1.6043    1.6072    0.8807 H         1 <0>         0.0000
     41 H9          8.2163   -6.2313   -2.2489 H         1 <0>         0.0000
     42 H10         5.5246   -9.2115   -3.7864 H         1 <0>         0.0000
     43 H11        -2.2222   -2.1936    6.3468 H         1 <0>         0.0000
     44 H12         0.0142    1.2488    5.0673 H         1 <0>         0.0000
     45 H13         9.8029   -8.0192   -1.5563 H         1 <0>         0.0000
     46 H14         7.1071  -11.0141   -3.0684 H         1 <0>         0.0000
     47 H15        -2.0676   -1.4142    8.7214 H         1 <0>         0.0000
     48 H16         0.1492    2.0392    7.4239 H         1 <0>         0.0000
@<TRIPOS>BOND
     1    1    5 ar
     2    1   17 ar
     3    1   33 1
     4    2    6 ar
     5    2   17 ar
     6    2   34 1
     7    3    7 ar
     8    3   18 ar
     9    3   35 1
    10    4    8 ar
    11    4   18 ar
    12    4   36 1
    13    5   19 ar
    14    5   37 1
    15    6   19 ar
    16    6   38 1
    17    7   20 ar
    18    7   39 1
    19    8   20 ar
    20    8   40 1
    21    9   13 ar
    22    9   21 ar
    23    9   41 1
    24   10   14 ar
    25   10   21 ar
    26   10   42 1
    27   11   15 ar
    28   11   22 ar
    29   11   43 1
    30   12   16 ar
    31   12   22 ar
    32   12   44 1
    33   13   23 ar
    34   13   45 1
    35   14   23 ar
    36   14   46 1
    37   15   24 ar
    38   15   47 1
    39   16   24 ar
    40   16   48 1
    41   17   18 1
    42   19   25 1
    43   20   26 1
    44   21   27 1
    45   22   28 1
    46   23   31 1
    47   24   32 1
    48   25   29 1
    49   26   30 1
    50   27   29 1
    51   28   30 1
