@<TRIPOS>MOLECULE
*****
   25    26     0     0     0
SMALL
NO_CHARGES

@<TRIPOS>ATOM
      1 C1         -2.2721   -1.6238   -5.6533 C.ar      1 <0>         0.0000
      2 C2         -1.3200   -1.1877   -4.7315 C.ar      1 <0>         0.0000
      3 C3         -2.6256   -0.8298   -6.7499 C.ar      1 <0>         0.0000
      4 C4         -0.6869    0.0518   -4.8937 C.ar      1 <0>         0.0000
      5 C5         -1.9949    0.3983   -6.9067 C.ar      1 <0>         0.0000
      6 C6         -1.0281    0.8377   -6.0031 C.ar      1 <0>         0.0000
      7 C7          0.7121   -0.0649   -0.5725 C.3       1 <0>         0.0000
      8 C8          1.9559   -0.1451   -1.4549 C.3       1 <0>         0.0000
      9 C9          0.7566    1.7215   -2.0395 C.3       1 <0>         0.0000
     10 C10         0.2402    1.7528   -3.4722 C.3       1 <0>         0.0000
     11 O1         -0.0967    0.9161   -1.2335 O.3       1 <0>         0.0000
     12 O2          2.0727    1.1992   -1.9411 O.3       1 <0>         0.0000
     13 O3          0.2761    0.4149   -3.9980 O.3       1 <0>         0.0000
     14 F1         -2.2974    1.1914   -7.9576 F         1 <0>         0.0000
     15 F2         -0.4135    2.0229   -6.2200 F         1 <0>         0.0000
     16 H1         -2.7546   -2.5863   -5.5125 H         1 <0>         0.0000
     17 H2         -1.0496   -1.7874   -3.8683 H         1 <0>         0.0000
     18 H3         -3.3699   -1.1419   -7.4752 H         1 <0>         0.0000
     19 H4          0.1478   -0.9995   -0.5230 H         1 <0>         0.0000
     20 H5          0.9571    0.2722    0.4431 H         1 <0>         0.0000
     21 H6          2.8692   -0.3853   -0.9060 H         1 <0>         0.0000
     22 H7          1.8203   -0.8417   -2.2888 H         1 <0>         0.0000
     23 H8          0.7825    2.7516   -1.6553 H         1 <0>         0.0000
     24 H9          0.8725    2.4109   -4.0747 H         1 <0>         0.0000
     25 H10        -0.7855    2.1365   -3.4703 H         1 <0>         0.0000
@<TRIPOS>BOND
     1    1    2 ar
     2    1    3 ar
     3    1   16 1
     4    2    4 ar
     5    2   17 1
     6    3    5 ar
     7    3   18 1
     8    4    6 ar
     9    4   13 1
    10    5    6 ar
    11    5   14 1
    12    6   15 1
    13    7    8 1
    14    7   11 1
    15    7   19 1
    16    7   20 1
    17    8   12 1
    18    8   21 1
    19    8   22 1
    20    9   10 1
    21    9   12 1
    22    9   11 1
    23    9   23 1
    24   10   13 1
    25   10   24 1
    26   10   25 1
