@<TRIPOS>MOLECULE
*****
   25    26     0     0     0
SMALL
NO_CHARGES

@<TRIPOS>ATOM
      1 C1         -0.3437   -1.7135   -3.9702 C.ar      1 <0>         0.0000
      2 C2         -0.0041   -2.4875   -5.0824 C.ar      1 <0>         0.0000
      3 C3         -1.1763   -0.9063   -6.5198 C.ar      1 <0>         0.0000
      4 C4         -1.0962   -0.5446   -4.1029 C.ar      1 <0>         0.0000
      5 C5         -0.4226   -2.0623   -6.3384 C.ar      1 <0>         0.0000
      6 C6         -1.5083   -0.1704   -5.3882 C.ar      1 <0>         0.0000
      7 C7          2.5436    1.8758   -3.2431 C.3       1 <0>         0.0000
      8 C8          2.0455    3.2208   -2.7075 C.3       1 <0>         0.0000
      9 C9          0.4667    1.5458   -2.4174 C.3       1 <0>         0.0000
     10 C10        -0.9885    1.5038   -2.8604 C.3       1 <0>         0.0000
     11 O1          1.3233    1.1679   -3.4790 O.3       1 <0>         0.0000
     12 O2          0.8086    2.8863   -2.0564 O.3       1 <0>         0.0000
     13 O3         -1.4716    0.1563   -2.9798 O.3       1 <0>         0.0000
     14 F1         -0.0926   -2.7974   -7.4316 F         1 <0>         0.0000
     15 F2         -2.2603    0.9484   -5.5413 F         1 <0>         0.0000
     16 H1         -0.0251   -2.0045   -2.9742 H         1 <0>         0.0000
     17 H2          0.5799   -3.3968   -4.9852 H         1 <0>         0.0000
     18 H3         -1.5067   -0.5930   -7.5044 H         1 <0>         0.0000
     19 H4          3.0868    1.9433   -4.1871 H         1 <0>         0.0000
     20 H5          3.1573    1.3466   -2.5006 H         1 <0>         0.0000
     21 H6          2.7236    3.6728   -1.9779 H         1 <0>         0.0000
     22 H7          1.8492    3.9339   -3.5164 H         1 <0>         0.0000
     23 H8          0.6279    0.8874   -1.5483 H         1 <0>         0.0000
     24 H9         -1.1033    2.0613   -3.7931 H         1 <0>         0.0000
     25 H10        -1.6016    1.9682   -2.0858 H         1 <0>         0.0000
@<TRIPOS>BOND
     1    1    2 ar
     2    1    4 ar
     3    1   16 1
     4    2    5 ar
     5    2   17 1
     6    3    5 ar
     7    3    6 ar
     8    3   18 1
     9    4    6 ar
    10    4   13 1
    11    5   14 1
    12    6   15 1
    13    7    8 1
    14    7   11 1
    15    7   19 1
    16    7   20 1
    17    8   12 1
    18    8   21 1
    19    8   22 1
    20    9   10 1
    21    9   12 1
    22    9   11 1
    23    9   23 1
    24   10   13 1
    25   10   24 1
    26   10   25 1
