@<TRIPOS>MOLECULE
*****
   21    22     0     0     0
SMALL
NO_CHARGES

@<TRIPOS>ATOM
      1 C1         -3.4870   -2.6392   -0.0772 C.ar      1 <0>         0.0000
      2 C2         -1.9072   -1.3396    1.2038 C.ar      1 <0>         0.0000
      3 C3         -2.7183   -2.3245   -1.2031 C.ar      1 <0>         0.0000
      4 C4         -3.0543   -2.1291    1.1444 C.ar      1 <0>         0.0000
      5 C5         -1.2185   -1.0719    0.0121 C.ar      1 <0>         0.0000
      6 C6         -0.0978    1.1979   -0.4630 C.3       1 <0>         0.0000
      7 C7          0.2014    0.8828    0.9899 C.3       1 <0>         0.0000
      8 C8          0.0334   -0.2414   -0.0078 C.3       1 <0>         0.0000
      9 C9          1.2697   -1.0127   -0.4458 C.3       1 <0>         0.0000
     10 N1         -1.6180   -1.5669   -1.1748 N.ar      1 <0>         0.0000
     11 Cl1        -3.9472   -2.4832    2.6098 Cl        1 <0>         0.0000
     12 H1         -4.3764   -3.2552   -0.1552 H         1 <0>         0.0000
     13 H2         -1.5512   -0.9505    2.1508 H         1 <0>         0.0000
     14 H3         -3.0145   -2.7069   -2.1790 H         1 <0>         0.0000
     15 H4         -1.0908    1.5650   -0.7044 H         1 <0>         0.0000
     16 H5          0.6971    1.6013   -1.0843 H         1 <0>         0.0000
     17 H6          1.2035    1.0744    1.3632 H         1 <0>         0.0000
     18 H7         -0.5865    1.0752    1.7121 H         1 <0>         0.0000
     19 H8          2.1422   -0.3528   -0.4897 H         1 <0>         0.0000
     20 H9          1.1133   -1.4474   -1.4372 H         1 <0>         0.0000
     21 H10         1.4937   -1.8245    0.2557 H         1 <0>         0.0000
@<TRIPOS>BOND
     1    1    3 ar
     2    1    4 ar
     3    1   12 1
     4    2    4 ar
     5    2    5 ar
     6    2   13 1
     7    3   10 ar
     8    3   14 1
     9    4   11 1
    10    5    8 1
    11    5   10 ar
    12    6    7 1
    13    6    8 1
    14    6   15 1
    15    6   16 1
    16    7    8 1
    17    7   17 1
    18    7   18 1
    19    8    9 1
    20    9   19 1
    21    9   20 1
    22    9   21 1
