@<TRIPOS>MOLECULE
*****
   48    51     0     0     0
SMALL
NO_CHARGES

@<TRIPOS>ATOM
      1 C1          4.3898   -1.7039   -1.5813 C.ar      1 <0>         0.0000
      2 C2          4.4898   -3.3578    0.1704 C.ar      1 <0>         0.0000
      3 C3          2.9474   -1.3266    1.8165 C.ar      1 <0>         0.0000
      4 C4          1.8086   -0.8273   -0.2494 C.ar      1 <0>         0.0000
      5 C5          5.3764   -2.3900   -2.2906 C.ar      1 <0>         0.0000
      6 C6          5.4715   -4.0577   -0.5309 C.ar      1 <0>         0.0000
      7 C7          1.9712   -0.6362    2.5346 C.ar      1 <0>         0.0000
      8 C8          0.8210   -0.1396    0.4568 C.ar      1 <0>         0.0000
      9 C9          9.0579   -1.3620   -2.9961 C.ar      1 <0>         0.0000
     10 C10        10.5949   -3.1762   -3.4967 C.ar      1 <0>         0.0000
     11 C11        -2.9016   -1.0960    1.0347 C.ar      1 <0>         0.0000
     12 C12        -3.9731   -0.0911    2.9703 C.ar      1 <0>         0.0000
     13 C13         9.5592   -0.6343   -4.0786 C.ar      1 <0>         0.0000
     14 C14        11.0929   -2.4548   -4.5833 C.ar      1 <0>         0.0000
     15 C15        -4.0094   -0.7695    0.2480 C.ar      1 <0>         0.0000
     16 C16        -5.0783    0.2430    2.1854 C.ar      1 <0>         0.0000
     17 C17         3.9307   -2.1712   -0.3378 C.ar      1 <0>         0.0000
     18 C18         2.8869   -1.4364    0.4153 C.ar      1 <0>         0.0000
     19 C19         5.9083   -3.5653   -1.7609 C.ar      1 <0>         0.0000
     20 C20         0.9115   -0.0461    1.8453 C.ar      1 <0>         0.0000
     21 C21         9.5824   -2.6224   -2.7120 C.ar      1 <0>         0.0000
     22 C22        -2.8950   -0.7588    2.3878 C.ar      1 <0>         0.0000
     23 C23        10.5707   -1.1892   -4.8648 C.ar      1 <0>         0.0000
     24 C24        -5.0870   -0.0997    0.8304 C.ar      1 <0>         0.0000
     25 O1          6.8517   -4.2333   -2.5548 O.3       1 <0>         0.0000
     26 O2         -0.0824    0.7098    2.4832 O.3       1 <0>         0.0000
     27 O3          9.0889   -3.2821   -1.5804 O.3       1 <0>         0.0000
     28 O4         -1.7890   -1.1638    3.1441 O.3       1 <0>         0.0000
     29 S1          8.2810   -4.7388   -1.8337 S.3       1 <0>         0.0000
     30 S2         -0.8416    0.0504    3.8276 S.3       1 <0>         0.0000
     31 Cl1        11.1991   -0.2822   -6.2311 Cl        1 <0>         0.0000
     32 Cl2        -6.4786    0.3198   -0.1555 Cl        1 <0>         0.0000
     33 H1          3.9977   -0.7746   -1.9849 H         1 <0>         0.0000
     34 H2          4.1287   -3.7594    1.1130 H         1 <0>         0.0000
     35 H3          3.7881   -1.7587    2.3519 H         1 <0>         0.0000
     36 H4          1.7197   -0.9207   -1.3282 H         1 <0>         0.0000
     37 H5          5.7434   -2.0278   -3.2463 H         1 <0>         0.0000
     38 H6          5.8908   -4.9755   -0.1306 H         1 <0>         0.0000
     39 H7          2.0324   -0.5537    3.6154 H         1 <0>         0.0000
     40 H8         -0.0205    0.3231   -0.0500 H         1 <0>         0.0000
     41 H9          8.2695   -0.9611   -2.3665 H         1 <0>         0.0000
     42 H10        10.9864   -4.1616   -3.2628 H         1 <0>         0.0000
     43 H11        -2.0459   -1.6139    0.6127 H         1 <0>         0.0000
     44 H12        -3.9467    0.1679    4.0245 H         1 <0>         0.0000
     45 H13         9.1649    0.3497   -4.3117 H         1 <0>         0.0000
     46 H14        11.8824   -2.8679   -5.2029 H         1 <0>         0.0000
     47 H15        -4.0327   -1.0276   -0.8059 H         1 <0>         0.0000
     48 H16        -5.9273    0.7595    2.6217 H         1 <0>         0.0000
@<TRIPOS>BOND
     1    1    5 ar
     2    1   17 ar
     3    1   33 1
     4    2    6 ar
     5    2   17 ar
     6    2   34 1
     7    3    7 ar
     8    3   18 ar
     9    3   35 1
    10    4    8 ar
    11    4   18 ar
    12    4   36 1
    13    5   19 ar
    14    5   37 1
    15    6   19 ar
    16    6   38 1
    17    7   20 ar
    18    7   39 1
    19    8   20 ar
    20    8   40 1
    21    9   13 ar
    22    9   21 ar
    23    9   41 1
    24   10   14 ar
    25   10   21 ar
    26   10   42 1
    27   11   15 ar
    28   11   22 ar
    29   11   43 1
    30   12   16 ar
    31   12   22 ar
    32   12   44 1
    33   13   23 ar
    34   13   45 1
    35   14   23 ar
    36   14   46 1
    37   15   24 ar
    38   15   47 1
    39   16   24 ar
    40   16   48 1
    41   17   18 1
    42   19   25 1
    43   20   26 1
    44   21   27 1
    45   22   28 1
    46   23   31 1
    47   24   32 1
    48   25   29 1
    49   26   30 1
    50   27   29 1
    51   28   30 1
