@<TRIPOS>MOLECULE
*****
   32    34     0     0     0
SMALL
NO_CHARGES

@<TRIPOS>ATOM
      1 C1          7.5325   -2.6155    2.2545 C.1       1 <0>         0.0000
      2 C2          1.6318   -2.3941   -0.4665 C.ar      1 <0>         0.0000
      3 C3          0.3438   -1.9512   -0.1540 C.ar      1 <0>         0.0000
      4 C4          2.6539   -2.2360    0.4657 C.ar      1 <0>         0.0000
      5 C5          0.0956   -1.3569    1.0854 C.ar      1 <0>         0.0000
      6 C6          6.6786   -0.6037    6.5160 C.2       1 <0>         0.0000
      7 C7          7.0454   -0.1634    7.7543 C.2       1 <0>         0.0000
      8 C8          8.9548   -1.1314    6.5262 C.2       1 <0>         0.0000
      9 C9          2.4077   -1.6374    1.7163 C.ar      1 <0>         0.0000
     10 C10         7.7810   -1.1752    5.7771 C.2       1 <0>         0.0000
     11 C11         1.1052   -1.1851    2.0430 C.ar      1 <0>         0.0000
     12 C12         3.5585   -1.5195    2.6259 C.2       1 <0>         0.0000
     13 C13         5.5529   -1.7009    3.3044 C.2       1 <0>         0.0000
     14 C14         7.8579   -1.7561    4.4533 C.2       1 <0>         0.0000
     15 C15         6.9785   -1.9854    3.4270 C.2       1 <0>         0.0000
     16 C16         0.7605   -0.5342    3.3601 C.3       1 <0>         0.0000
     17 N1          8.0236   -3.1254    1.3292 N.1       1 <0>         0.0000
     18 N2          4.8161   -1.9735    2.2622 N.2       1 <0>         0.0000
     19 N3          3.5216   -0.9907    3.8380 N.2       1 <0>         0.0000
     20 O1          4.8544   -1.1101    4.2952 O.3       1 <0>         0.0000
     21 S1          8.7358   -0.4240    8.0708 S.3       1 <0>         0.0000
     22 H1          1.8391   -2.8581   -1.4268 H         1 <0>         0.0000
     23 H2         -0.4658   -2.0667   -0.8702 H         1 <0>         0.0000
     24 H3          3.6598   -2.5731    0.2413 H         1 <0>         0.0000
     25 H4         -0.9093   -1.0151    1.3206 H         1 <0>         0.0000
     26 H5          5.6703   -0.5268    6.1420 H         1 <0>         0.0000
     27 H6          6.4208    0.3019    8.5061 H         1 <0>         0.0000
     28 H7          9.9318   -1.4883    6.2239 H         1 <0>         0.0000
     29 H8          8.8642   -2.0939    4.2164 H         1 <0>         0.0000
     30 H9          0.9758   -1.1963    4.2040 H         1 <0>         0.0000
     31 H10         1.3504    0.3719    3.5269 H         1 <0>         0.0000
     32 H11        -0.2998   -0.2697    3.3859 H         1 <0>         0.0000
@<TRIPOS>BOND
     1    1   15 1
     2    1   17 3
     3    2    3 ar
     4    2    4 ar
     5    2   22 1
     6    3    5 ar
     7    3   23 1
     8    4    9 ar
     9    4   24 1
    10    5   11 ar
    11    5   25 1
    12    6    7 2
    13    6   10 1
    14    6   26 1
    15    7   21 1
    16    7   27 1
    17    8   10 2
    18    8   21 1
    19    8   28 1
    20    9   11 ar
    21    9   12 1
    22   10   14 1
    23   11   16 1
    24   12   18 1
    25   12   19 2
    26   13   15 1
    27   13   18 2
    28   13   20 1
    29   14   15 2
    30   14   29 1
    31   16   30 1
    32   16   31 1
    33   16   32 1
    34   19   20 1
