@<TRIPOS>MOLECULE
*****
   48    51     0     0     0
SMALL
NO_CHARGES

@<TRIPOS>ATOM
      1 C1          4.3602   -1.5798   -1.6115 C.ar      1 <0>         0.0000
      2 C2          4.6562   -3.0993    0.2408 C.ar      1 <0>         0.0000
      3 C3          2.7152   -1.2586    1.6686 C.ar      1 <0>         0.0000
      4 C4          1.5616   -1.1846   -0.4518 C.ar      1 <0>         0.0000
      5 C5          5.5343   -2.0540   -2.1972 C.ar      1 <0>         0.0000
      6 C6          5.8274   -3.5855   -0.3378 C.ar      1 <0>         0.0000
      7 C7          1.5989   -0.7101    2.3009 C.ar      1 <0>         0.0000
      8 C8          0.4402   -0.6340    0.1686 C.ar      1 <0>         0.0000
      9 C9          8.3907   -2.5394    1.8884 C.ar      1 <0>         0.0000
     10 C10         7.5752   -0.7537    0.4602 C.ar      1 <0>         0.0000
     11 C11        -0.3993   -2.1038    5.2602 C.ar      1 <0>         0.0000
     12 C12        -2.5111   -0.9098    5.3839 C.ar      1 <0>         0.0000
     13 C13         7.5690   -2.0935    2.9251 C.ar      1 <0>         0.0000
     14 C14         6.7410   -0.3158    1.4903 C.ar      1 <0>         0.0000
     15 C15        -0.1983   -1.8991    6.6275 C.ar      1 <0>         0.0000
     16 C16        -2.3086   -0.6966    6.7489 C.ar      1 <0>         0.0000
     17 C17         3.9150   -2.0750   -0.3731 C.ar      1 <0>         0.0000
     18 C18         2.7149   -1.5077    0.2855 C.ar      1 <0>         0.0000
     19 C19         6.2726   -3.0366   -1.5389 C.ar      1 <0>         0.0000
     20 C20         0.4704   -0.3996    1.5437 C.ar      1 <0>         0.0000
     21 C21         8.3785   -1.8774    0.6595 C.ar      1 <0>         0.0000
     22 C22        -1.5536   -1.6121    4.6507 C.ar      1 <0>         0.0000
     23 C23         6.7395   -0.9913    2.7120 C.ar      1 <0>         0.0000
     24 C24        -1.1542   -1.1931    7.3601 C.ar      1 <0>         0.0000
     25 O1          7.5096   -3.4731   -2.0458 O.3       1 <0>         0.0000
     26 O2         -0.6045    0.2047    2.2111 O.3       1 <0>         0.0000
     27 O3          9.2095   -2.4352   -0.3237 O.3       1 <0>         0.0000
     28 O4         -1.7150   -1.9079    3.2918 O.3       1 <0>         0.0000
     29 S1          8.7487   -2.3353   -1.9396 S.3       1 <0>         0.0000
     30 S2         -2.0592   -0.6371    2.2436 S.3       1 <0>         0.0000
     31 Cl1         5.6728   -0.4494    4.0017 Cl        1 <0>         0.0000
     32 Cl2        -0.9023   -0.9228    9.0773 Cl        1 <0>         0.0000
     33 H1          3.8067   -0.7832   -2.1010 H         1 <0>         0.0000
     34 H2          4.3167   -3.5164    1.1842 H         1 <0>         0.0000
     35 H3          3.6045   -1.4681    2.2547 H         1 <0>         0.0000
     36 H4          1.5322   -1.3872   -1.5189 H         1 <0>         0.0000
     37 H5          5.8977   -1.6412   -3.1338 H         1 <0>         0.0000
     38 H6          6.4192   -4.3547    0.1477 H         1 <0>         0.0000
     39 H7          1.5979   -0.5015    3.3664 H         1 <0>         0.0000
     40 H8         -0.4537   -0.3990   -0.4018 H         1 <0>         0.0000
     41 H9          9.0270   -3.4099    2.0145 H         1 <0>         0.0000
     42 H10         7.5611   -0.2497   -0.4995 H         1 <0>         0.0000
     43 H11         0.3262   -2.6454    4.6611 H         1 <0>         0.0000
     44 H12        -3.4006   -0.5259    4.8942 H         1 <0>         0.0000
     45 H13         7.5635   -2.6066    3.8815 H         1 <0>         0.0000
     46 H14         6.0903    0.5391    1.3383 H         1 <0>         0.0000
     47 H15         0.6942   -2.2773    7.1157 H         1 <0>         0.0000
     48 H16        -3.0438   -0.1538    7.3344 H         1 <0>         0.0000
@<TRIPOS>BOND
     1    1    5 ar
     2    1   17 ar
     3    1   33 1
     4    2    6 ar
     5    2   17 ar
     6    2   34 1
     7    3    7 ar
     8    3   18 ar
     9    3   35 1
    10    4    8 ar
    11    4   18 ar
    12    4   36 1
    13    5   19 ar
    14    5   37 1
    15    6   19 ar
    16    6   38 1
    17    7   20 ar
    18    7   39 1
    19    8   20 ar
    20    8   40 1
    21    9   13 ar
    22    9   21 ar
    23    9   41 1
    24   10   14 ar
    25   10   21 ar
    26   10   42 1
    27   11   15 ar
    28   11   22 ar
    29   11   43 1
    30   12   16 ar
    31   12   22 ar
    32   12   44 1
    33   13   23 ar
    34   13   45 1
    35   14   23 ar
    36   14   46 1
    37   15   24 ar
    38   15   47 1
    39   16   24 ar
    40   16   48 1
    41   17   18 1
    42   19   25 1
    43   20   26 1
    44   21   27 1
    45   22   28 1
    46   23   31 1
    47   24   32 1
    48   25   29 1
    49   26   30 1
    50   27   29 1
    51   28   30 1
