@<TRIPOS>MOLECULE
*****
   30    31     0     0     0
SMALL
NO_CHARGES

@<TRIPOS>ATOM
      1 C1          5.4946   -0.8149   -1.3733 C.ar      1 <0>         0.0000
      2 C2          4.8705    0.0581   -0.4741 C.ar      1 <0>         0.0000
      3 C3          4.8241   -1.9664   -1.7951 C.ar      1 <0>         0.0000
      4 C4          3.5882   -0.2232    0.0009 C.ar      1 <0>         0.0000
      5 C5          3.5384   -2.2431   -1.3190 C.ar      1 <0>         0.0000
      6 C6          2.9137   -1.3777   -0.4162 C.ar      1 <0>         0.0000
      7 C7         -0.9137    0.8295    1.5952 C.3       1 <0>         0.0000
      8 C8         -1.6845    1.3518    0.3756 C.3       1 <0>         0.0000
      9 C9         -0.3010   -0.5558    1.3712 C.3       1 <0>         0.0000
     10 C10        -0.8043    1.4093   -0.8759 C.3       1 <0>         0.0000
     11 C11         1.5487   -1.7132    0.1450 C.3       1 <0>         0.0000
     12 N1          0.6541   -0.5321    0.2372 N.pl3     1 <0>         0.0000
     13 O1         -1.2949   -1.1497   -1.4024 O.2       1 <0>         0.0000
     14 O2          0.8651   -0.1657   -2.2953 O.2       1 <0>         0.0000
     15 S1         -0.1507   -0.2337   -1.2449 S.o2      1 <0>         0.0000
     16 H1          6.4912   -0.5943   -1.7473 H         1 <0>         0.0000
     17 H2          5.3836    0.9596   -0.1479 H         1 <0>         0.0000
     18 H3          5.2956   -2.6430   -2.5033 H         1 <0>         0.0000
     19 H4          3.0935    0.4628    0.6836 H         1 <0>         0.0000
     20 H5          3.0117   -3.1284   -1.6685 H         1 <0>         0.0000
     21 H6         -0.1076    1.5286    1.8474 H         1 <0>         0.0000
     22 H7         -1.5859    0.7790    2.4585 H         1 <0>         0.0000
     23 H8         -2.5470    0.7097    0.1704 H         1 <0>         0.0000
     24 H9         -2.0685    2.3579    0.5756 H         1 <0>         0.0000
     25 H10         0.2762   -0.8410    2.2549 H         1 <0>         0.0000
     26 H11        -1.0833   -1.3130    1.2192 H         1 <0>         0.0000
     27 H12        -1.3638    1.6990   -1.7692 H         1 <0>         0.0000
     28 H13         0.0649    2.0610   -0.7615 H         1 <0>         0.0000
     29 H14         1.0862   -2.5307   -0.4226 H         1 <0>         0.0000
     30 H15         1.6590   -2.0761    1.1719 H         1 <0>         0.0000
@<TRIPOS>BOND
     1    1    3 ar
     2    1    2 ar
     3    1   16 1
     4    2    4 ar
     5    2   17 1
     6    3    5 ar
     7    3   18 1
     8    4    6 ar
     9    4   19 1
    10    5    6 ar
    11    5   20 1
    12    6   11 1
    13    7    8 1
    14    7    9 1
    15    7   21 1
    16    7   22 1
    17    8   10 1
    18    8   23 1
    19    8   24 1
    20    9   12 1
    21    9   25 1
    22    9   26 1
    23   10   15 1
    24   10   27 1
    25   10   28 1
    26   11   12 1
    27   11   29 1
    28   11   30 1
    29   12   15 1
    30   13   15 2
    31   14   15 2
