@<TRIPOS>MOLECULE
*****
   48    51     0     0     0
SMALL
NO_CHARGES

@<TRIPOS>ATOM
      1 C1          3.8436   -2.0248   -1.2720 C.ar      1 <0>         0.0000
      2 C2          4.8074   -3.1903    0.6042 C.ar      1 <0>         0.0000
      3 C3          2.1206   -2.7222    1.9399 C.ar      1 <0>         0.0000
      4 C4          2.1698   -0.5908    0.8180 C.ar      1 <0>         0.0000
      5 C5          4.8764   -2.4720   -2.0966 C.ar      1 <0>         0.0000
      6 C6          5.8503   -3.6394   -0.2063 C.ar      1 <0>         0.0000
      7 C7          1.0810   -2.2752    2.7538 C.ar      1 <0>         0.0000
      8 C8          1.1334   -0.1234    1.6291 C.ar      1 <0>         0.0000
      9 C9          9.5225   -2.3321   -0.4380 C.ar      1 <0>         0.0000
     10 C10        10.8086   -2.5781   -2.4854 C.ar      1 <0>         0.0000
     11 C11        -1.4883    3.3582    5.0377 C.ar      1 <0>         0.0000
     12 C12         0.5483    2.0421    5.2176 C.ar      1 <0>         0.0000
     13 C13        10.6238   -2.7591    0.3083 C.ar      1 <0>         0.0000
     14 C14        11.9094   -3.0103   -1.7433 C.ar      1 <0>         0.0000
     15 C15        -1.2829    3.8568    6.3261 C.ar      1 <0>         0.0000
     16 C16         0.7545    2.5369    6.5074 C.ar      1 <0>         0.0000
     17 C17         3.7866   -2.3724    0.0894 C.ar      1 <0>         0.0000
     18 C18         2.6836   -1.8913    0.9544 C.ar      1 <0>         0.0000
     19 C19         5.8758   -3.2799   -1.5542 C.ar      1 <0>         0.0000
     20 C20         0.5900   -0.9782    2.5899 C.ar      1 <0>         0.0000
     21 C21         9.6263   -2.2408   -1.8256 C.ar      1 <0>         0.0000
     22 C22        -0.5715    2.4576    4.4949 C.ar      1 <0>         0.0000
     23 C23        11.8069   -3.0967   -0.3520 C.ar      1 <0>         0.0000
     24 C24        -0.1634    3.4391    7.0502 C.ar      1 <0>         0.0000
     25 O1          6.9290   -3.8197   -2.3070 O.3       1 <0>         0.0000
     26 O2         -0.4184   -0.5956    3.4837 O.3       1 <0>         0.0000
     27 O3          8.5204   -1.7517   -2.5303 O.3       1 <0>         0.0000
     28 O4         -0.7483    2.0009    3.1840 O.3       1 <0>         0.0000
     29 S1          7.6705   -2.8649   -3.4698 S.3       1 <0>         0.0000
     30 S2         -1.5644    0.5277    3.0072 S.3       1 <0>         0.0000
     31 Cl1        13.1923   -3.6388    0.5815 Cl        1 <0>         0.0000
     32 Cl2         0.0961    4.0626    8.6711 Cl        1 <0>         0.0000
     33 H1          3.0507   -1.4205   -1.7039 H         1 <0>         0.0000
     34 H2          4.8070   -3.4523    1.6586 H         1 <0>         0.0000
     35 H3          2.4746   -3.7434    2.0494 H         1 <0>         0.0000
     36 H4          2.6101    0.0857    0.0908 H         1 <0>         0.0000
     37 H5          4.9038   -2.1977   -3.1463 H         1 <0>         0.0000
     38 H6          6.6476   -4.2617    0.1892 H         1 <0>         0.0000
     39 H7          0.6337   -2.9203    3.5041 H         1 <0>         0.0000
     40 H8          0.7705    0.8932    1.5258 H         1 <0>         0.0000
     41 H9          8.5869   -2.0652    0.0439 H         1 <0>         0.0000
     42 H10        10.8655   -2.5040   -3.5674 H         1 <0>         0.0000
     43 H11        -2.3501    3.6659    4.4530 H         1 <0>         0.0000
     44 H12         1.2467    1.3411    4.7722 H         1 <0>         0.0000
     45 H13        10.5627   -2.8329    1.3894 H         1 <0>         0.0000
     46 H14        12.8388   -3.2732   -2.2381 H         1 <0>         0.0000
     47 H15        -1.9833    4.5610    6.7636 H         1 <0>         0.0000
     48 H16         1.6190    2.2256    7.0850 H         1 <0>         0.0000
@<TRIPOS>BOND
     1    1    5 ar
     2    1   17 ar
     3    1   33 1
     4    2    6 ar
     5    2   17 ar
     6    2   34 1
     7    3    7 ar
     8    3   18 ar
     9    3   35 1
    10    4    8 ar
    11    4   18 ar
    12    4   36 1
    13    5   19 ar
    14    5   37 1
    15    6   19 ar
    16    6   38 1
    17    7   20 ar
    18    7   39 1
    19    8   20 ar
    20    8   40 1
    21    9   13 ar
    22    9   21 ar
    23    9   41 1
    24   10   14 ar
    25   10   21 ar
    26   10   42 1
    27   11   15 ar
    28   11   22 ar
    29   11   43 1
    30   12   16 ar
    31   12   22 ar
    32   12   44 1
    33   13   23 ar
    34   13   45 1
    35   14   23 ar
    36   14   46 1
    37   15   24 ar
    38   15   47 1
    39   16   24 ar
    40   16   48 1
    41   17   18 1
    42   19   25 1
    43   20   26 1
    44   21   27 1
    45   22   28 1
    46   23   31 1
    47   24   32 1
    48   25   29 1
    49   26   30 1
    50   27   29 1
    51   28   30 1
