@<TRIPOS>MOLECULE
*****
   22    23     0     0     0
SMALL
NO_CHARGES

@<TRIPOS>ATOM
      1 C1          1.8170   -0.9730   -0.1183 C.ar      1 <0>         0.0000
      2 C2          2.9308   -1.3101    0.6560 C.ar      1 <0>         0.0000
      3 C3          0.6173   -0.6224    0.5137 C.ar      1 <0>         0.0000
      4 C4          2.8514   -1.2861    2.0512 C.ar      1 <0>         0.0000
      5 C5          0.5362   -0.5948    1.9053 C.ar      1 <0>         0.0000
      6 C6          0.6452   -1.0393    6.1316 C.2       1 <0>         0.0000
      7 C7          1.9485   -0.6341    6.3189 C.2       1 <0>         0.0000
      8 C8          1.6570   -0.9153    2.6944 C.ar      1 <0>         0.0000
      9 C9          1.5105   -0.8882    4.1565 C.2       1 <0>         0.0000
     10 C10         3.8375   -0.0237    4.7826 C.3       1 <0>         0.0000
     11 N1          0.3814   -1.1890    4.7930 N.2       1 <0>         0.0000
     12 N2          2.5001   -0.5341    5.0544 N.pl3     1 <0>         0.0000
     13 H1          1.8794   -0.9920   -1.2032 H         1 <0>         0.0000
     14 H2          3.8599   -1.6059    0.1755 H         1 <0>         0.0000
     15 H3         -0.2564   -0.3686   -0.0812 H         1 <0>         0.0000
     16 H4          3.7133   -1.5961    2.6335 H         1 <0>         0.0000
     17 H5         -0.3911   -0.3314    2.4042 H         1 <0>         0.0000
     18 H6         -0.1088   -1.2326    6.8841 H         1 <0>         0.0000
     19 H7          2.5202   -0.4022    7.2067 H         1 <0>         0.0000
     20 H8          4.5732   -0.8327    4.7265 H         1 <0>         0.0000
     21 H9          3.8419    0.5267    3.8409 H         1 <0>         0.0000
     22 H10         4.1267    0.6580    5.5852 H         1 <0>         0.0000
@<TRIPOS>BOND
     1    1    3 ar
     2    1    2 ar
     3    1   13 1
     4    2    4 ar
     5    2   14 1
     6    3    5 ar
     7    3   15 1
     8    4    8 ar
     9    4   16 1
    10    5    8 ar
    11    5   17 1
    12    6    7 2
    13    6   11 1
    14    6   18 1
    15    7   12 1
    16    7   19 1
    17    8    9 1
    18    9   11 2
    19    9   12 1
    20   10   12 1
    21   10   20 1
    22   10   21 1
    23   10   22 1
