@<TRIPOS>MOLECULE
*****
   32    34     0     0     0
SMALL
NO_CHARGES

@<TRIPOS>ATOM
      1 C1          5.6575   -2.7639    4.1507 C.1       1 <0>         0.0000
      2 C2          9.3606    4.0973    3.9557 C.ar      1 <0>         0.0000
      3 C3          8.1988    4.7850    3.5924 C.ar      1 <0>         0.0000
      4 C4          6.0462   -7.2617    4.4197 C.2       1 <0>         0.0000
      5 C5          9.3509    2.7054    3.9727 C.ar      1 <0>         0.0000
      6 C6          7.0494    4.0718    3.2473 C.ar      1 <0>         0.0000
      7 C7          6.0511   -5.8490    4.3218 C.2       1 <0>         0.0000
      8 C8          7.3090   -7.8106    4.3331 C.2       1 <0>         0.0000
      9 C9          8.1920    1.9835    3.6298 C.ar      1 <0>         0.0000
     10 C10         7.0120    2.6688    3.2549 C.ar      1 <0>         0.0000
     11 C11         7.3289   -5.3200    4.1596 C.2       1 <0>         0.0000
     12 C12         8.2728    0.5130    3.6722 C.2       1 <0>         0.0000
     13 C13         7.7436   -1.5178    3.8562 C.2       1 <0>         0.0000
     14 C14         7.7983   -3.9729    4.0204 C.2       1 <0>         0.0000
     15 C15         7.0813   -2.8059    4.0122 C.2       1 <0>         0.0000
     16 C16         5.7333    1.9715    2.8496 C.3       1 <0>         0.0000
     17 N1          4.4975   -2.7676    4.2638 N.1       1 <0>         0.0000
     18 N2          7.1913   -0.3349    3.8447 N.2       1 <0>         0.0000
     19 N3          9.4308   -0.1177    3.5744 N.2       1 <0>         0.0000
     20 O1          9.0840   -1.4797    3.7039 O.3       1 <0>         0.0000
     21 S1          8.5215   -6.6096    4.1309 S.3       1 <0>         0.0000
     22 H1         10.2620    4.6394    4.2280 H         1 <0>         0.0000
     23 H2          8.1865    5.8719    3.5769 H         1 <0>         0.0000
     24 H3          5.1483   -7.8563    4.5490 H         1 <0>         0.0000
     25 H4         10.2420    2.1566    4.2604 H         1 <0>         0.0000
     26 H5          6.1527    4.6147    2.9588 H         1 <0>         0.0000
     27 H6          5.1568   -5.2410    4.3681 H         1 <0>         0.0000
     28 H7          7.5830   -8.8572    4.3782 H         1 <0>         0.0000
     29 H8          8.8733   -3.8534    3.9046 H         1 <0>         0.0000
     30 H9          5.9091    1.2147    2.0803 H         1 <0>         0.0000
     31 H10         5.2756    1.4496    3.6934 H         1 <0>         0.0000
     32 H11         5.0175    2.6994    2.4587 H         1 <0>         0.0000
@<TRIPOS>BOND
     1    1   15 1
     2    1   17 3
     3    2    3 ar
     4    2    5 ar
     5    2   22 1
     6    3    6 ar
     7    3   23 1
     8    4    7 1
     9    4    8 2
    10    4   24 1
    11    5    9 ar
    12    5   25 1
    13    6   10 ar
    14    6   26 1
    15    7   11 2
    16    7   27 1
    17    8   21 1
    18    8   28 1
    19    9   10 ar
    20    9   12 1
    21   10   16 1
    22   11   14 1
    23   11   21 1
    24   12   18 1
    25   12   19 2
    26   13   15 1
    27   13   18 2
    28   13   20 1
    29   14   15 2
    30   14   29 1
    31   16   30 1
    32   16   31 1
    33   16   32 1
    34   19   20 1
