@<TRIPOS>MOLECULE
*****
   48    51     0     0     0
SMALL
NO_CHARGES

@<TRIPOS>ATOM
      1 C1          3.8959   -0.5594   -2.7194 C.ar      1 <0>         0.0000
      2 C2          4.7139   -0.6549   -0.4549 C.ar      1 <0>         0.0000
      3 C3          1.8141   -0.2289    0.3334 C.ar      1 <0>         0.0000
      4 C4          1.7203    1.2281   -1.5837 C.ar      1 <0>         0.0000
      5 C5          5.0973   -1.0910   -3.1910 C.ar      1 <0>         0.0000
      6 C6          5.9236   -1.1792   -0.9091 C.ar      1 <0>         0.0000
      7 C7          0.6067    0.2895    0.8043 C.ar      1 <0>         0.0000
      8 C8          0.5083    1.7502   -1.1331 C.ar      1 <0>         0.0000
      9 C9          7.6359   -4.0318   -6.8657 C.ar      1 <0>         0.0000
     10 C10         7.9562   -4.5508   -4.5119 C.ar      1 <0>         0.0000
     11 C11        -2.0891    3.1934    3.3172 C.ar      1 <0>         0.0000
     12 C12        -2.5323    1.4698    4.9740 C.ar      1 <0>         0.0000
     13 C13         7.9419   -5.3514   -7.2036 C.ar      1 <0>         0.0000
     14 C14         8.2716   -5.8691   -4.8522 C.ar      1 <0>         0.0000
     15 C15        -2.3359    4.1745    4.2814 C.ar      1 <0>         0.0000
     16 C16        -2.7693    2.4508    5.9387 C.ar      1 <0>         0.0000
     17 C17         3.6783   -0.3321   -1.3497 C.ar      1 <0>         0.0000
     18 C18         2.3943    0.2262   -0.8630 C.ar      1 <0>         0.0000
     19 C19         6.1076   -1.3922   -2.2759 C.ar      1 <0>         0.0000
     20 C20        -0.0417    1.2749    0.0581 C.ar      1 <0>         0.0000
     21 C21         7.6468   -3.6412   -5.5254 C.ar      1 <0>         0.0000
     22 C22        -2.1971    1.8471    3.6723 C.ar      1 <0>         0.0000
     23 C23         8.2613   -6.2602   -6.1923 C.ar      1 <0>         0.0000
     24 C24        -2.6728    3.7979    5.5827 C.ar      1 <0>         0.0000
     25 O1          7.3266   -1.9742   -2.6510 O.3       1 <0>         0.0000
     26 O2         -1.2333    1.8852    0.4748 O.3       1 <0>         0.0000
     27 O3          7.2732   -2.3169   -5.2691 O.3       1 <0>         0.0000
     28 O4         -1.9240    0.8024    2.7821 O.3       1 <0>         0.0000
     29 S1          8.0755   -1.4614   -4.0632 S.3       1 <0>         0.0000
     30 S2         -2.4271    0.9412    1.1830 S.3       1 <0>         0.0000
     31 Cl1         8.6512   -7.9205   -6.6130 Cl        1 <0>         0.0000
     32 Cl2        -2.9768    5.0355    6.7916 Cl        1 <0>         0.0000
     33 H1          3.0999   -0.3540   -3.4297 H         1 <0>         0.0000
     34 H2          4.5879   -0.4616    0.6067 H         1 <0>         0.0000
     35 H3          2.3018   -1.0173    0.8998 H         1 <0>         0.0000
     36 H4          2.1567    1.6195   -2.4982 H         1 <0>         0.0000
     37 H5          5.2371   -1.2868   -4.2485 H         1 <0>         0.0000
     38 H6          6.7308   -1.4133   -0.2213 H         1 <0>         0.0000
     39 H7          0.1768   -0.0690    1.7334 H         1 <0>         0.0000
     40 H8         -0.0126    2.5257   -1.6868 H         1 <0>         0.0000
     41 H9          7.3907   -3.3020   -7.6313 H         1 <0>         0.0000
     42 H10         7.9433   -4.2431   -3.4722 H         1 <0>         0.0000
     43 H11        -1.8088    3.4767    2.3087 H         1 <0>         0.0000
     44 H12        -2.6077    0.4151    5.2203 H         1 <0>         0.0000
     45 H13         7.9400   -5.6675   -8.2418 H         1 <0>         0.0000
     46 H14         8.5135   -6.5893   -4.0772 H         1 <0>         0.0000
     47 H15        -2.2560    5.2255    4.0225 H         1 <0>         0.0000
     48 H16        -3.0342    2.1713    6.9534 H         1 <0>         0.0000
@<TRIPOS>BOND
     1    1    5 ar
     2    1   17 ar
     3    1   33 1
     4    2    6 ar
     5    2   17 ar
     6    2   34 1
     7    3    7 ar
     8    3   18 ar
     9    3   35 1
    10    4    8 ar
    11    4   18 ar
    12    4   36 1
    13    5   19 ar
    14    5   37 1
    15    6   19 ar
    16    6   38 1
    17    7   20 ar
    18    7   39 1
    19    8   20 ar
    20    8   40 1
    21    9   13 ar
    22    9   21 ar
    23    9   41 1
    24   10   14 ar
    25   10   21 ar
    26   10   42 1
    27   11   15 ar
    28   11   22 ar
    29   11   43 1
    30   12   16 ar
    31   12   22 ar
    32   12   44 1
    33   13   23 ar
    34   13   45 1
    35   14   23 ar
    36   14   46 1
    37   15   24 ar
    38   15   47 1
    39   16   24 ar
    40   16   48 1
    41   17   18 1
    42   19   25 1
    43   20   26 1
    44   21   27 1
    45   22   28 1
    46   23   31 1
    47   24   32 1
    48   25   29 1
    49   26   30 1
    50   27   29 1
    51   28   30 1
