@<TRIPOS>MOLECULE
*****
   27    28     0     0     0
SMALL
NO_CHARGES

@<TRIPOS>ATOM
      1 C1          4.3778    2.0066    2.4019 C.ar      1 <0>         0.0000
      2 C2          3.3813    2.4085    3.2970 C.ar      1 <0>         0.0000
      3 C3          4.6667    0.6449    2.2415 C.ar      1 <0>         0.0000
      4 C4         -1.3820    0.1235    4.7541 C.ar      1 <0>         0.0000
      5 C5         -1.7655   -0.2837    6.0343 C.ar      1 <0>         0.0000
      6 C6          2.6621    1.4524    4.0191 C.ar      1 <0>         0.0000
      7 C7          3.9631   -0.3084    2.9758 C.ar      1 <0>         0.0000
      8 C8         -0.0641   -0.0759    4.3427 C.ar      1 <0>         0.0000
      9 C9         -0.8355   -0.8975    6.8787 C.ar      1 <0>         0.0000
     10 C10         2.9465    0.0858    3.8618 C.ar      1 <0>         0.0000
     11 C11         0.8710   -0.7032    5.1835 C.ar      1 <0>         0.0000
     12 C12         0.4850   -1.1357    6.4737 C.ar      1 <0>         0.0000
     13 C13         2.2497   -0.9740    4.6608 C.2       1 <0>         0.0000
     14 C14         1.4387   -1.8268    7.4209 C.3       1 <0>         0.0000
     15 O1          2.8053   -2.0503    4.8728 O.2       1 <0>         0.0000
     16 H1          4.9308    2.7506    1.8340 H         1 <0>         0.0000
     17 H2          3.1652    3.4649    3.4333 H         1 <0>         0.0000
     18 H3          5.4429    0.3321    1.5479 H         1 <0>         0.0000
     19 H4         -2.0978    0.5948    4.0859 H         1 <0>         0.0000
     20 H5         -2.7846   -0.1239    6.3774 H         1 <0>         0.0000
     21 H6          1.8944    1.7692    4.7180 H         1 <0>         0.0000
     22 H7          4.1855   -1.3668    2.8797 H         1 <0>         0.0000
     23 H8          0.2416    0.2398    3.3494 H         1 <0>         0.0000
     24 H9         -1.1422   -1.2047    7.8759 H         1 <0>         0.0000
     25 H10         1.6133   -2.8603    7.1097 H         1 <0>         0.0000
     26 H11         2.4180   -1.3412    7.4434 H         1 <0>         0.0000
     27 H12         1.0302   -1.8308    8.4354 H         1 <0>         0.0000
@<TRIPOS>BOND
     1    1    3 ar
     2    1    2 ar
     3    1   16 1
     4    2    6 ar
     5    2   17 1
     6    3    7 ar
     7    3   18 1
     8    4    5 ar
     9    4    8 ar
    10    4   19 1
    11    5    9 ar
    12    5   20 1
    13    6   10 ar
    14    6   21 1
    15    7   10 ar
    16    7   22 1
    17    8   11 ar
    18    8   23 1
    19    9   12 ar
    20    9   24 1
    21   10   13 1
    22   11   12 ar
    23   11   13 1
    24   12   14 1
    25   13   15 2
    26   14   25 1
    27   14   26 1
    28   14   27 1
