@<TRIPOS>MOLECULE
*****
   25    25     0     0     0
SMALL
NO_CHARGES

@<TRIPOS>ATOM
      1 C1          1.0224    0.3509    3.1396 C.2       1 <0>         0.0000
      2 C2          0.7299   -0.0761    1.8923 C.2       1 <0>         0.0000
      3 C3          2.9925   -0.6804    1.9662 C.2       1 <0>         0.0000
      4 C4         -0.4571    0.6678   -0.1959 C.2       1 <0>         0.0000
      5 C5          0.6048    0.4294   -2.3195 C.3       1 <0>         0.0000
      6 C6          6.0374   -1.1775   -0.2644 C.3       1 <0>         0.0000
      7 C7         -0.5880    0.0072    1.1734 C.3       1 <0>         0.0000
      8 N1          4.1824   -1.0959    1.6227 N.2       1 <0>         0.0000
      9 N2          1.8225   -0.6704    1.2606 N.pl3     1 <0>         0.0000
     10 O1         -0.9328    1.7375   -0.5083 O.2       1 <0>         0.0000
     11 O2          4.4653   -3.2562    0.2492 O.2       1 <0>         0.0000
     12 O3          3.4450   -1.2301   -0.8689 O.2       1 <0>         0.0000
     13 O4          0.2860   -0.1117   -1.0142 O.3       1 <0>         0.0000
     14 S1          2.7006    0.0231    3.5616 S.3       1 <0>         0.0000
     15 S2          4.3969   -1.7964    0.1245 S.o2      1 <0>         0.0000
     16 H1          0.3551    0.8279    3.8435 H         1 <0>         0.0000
     17 H2          1.3189   -0.2714   -2.7483 H         1 <0>         0.0000
     18 H3          1.0493    1.4204   -2.2135 H         1 <0>         0.0000
     19 H4         -0.3023    0.4946   -2.9240 H         1 <0>         0.0000
     20 H5          6.3171   -1.6190   -1.2223 H         1 <0>         0.0000
     21 H6          5.9941   -0.0904   -0.3305 H         1 <0>         0.0000
     22 H7          6.7152   -1.5002    0.5257 H         1 <0>         0.0000
     23 H8         -1.2937    0.5872    1.7664 H         1 <0>         0.0000
     24 H9         -0.9910   -1.0022    1.0283 H         1 <0>         0.0000
     25 H10         1.8360   -0.8912    0.2614 H         1 <0>         0.0000
@<TRIPOS>BOND
     1    1    2 2
     2    1   14 1
     3    1   16 1
     4    2    7 1
     5    2    9 1
     6    3    8 2
     7    3    9 1
     8    3   14 1
     9    4    7 1
    10    4   10 2
    11    4   13 1
    12    5   13 1
    13    5   17 1
    14    5   18 1
    15    5   19 1
    16    6   15 1
    17    6   20 1
    18    6   21 1
    19    6   22 1
    20    7   23 1
    21    7   24 1
    22    8   15 1
    23    9   25 1
    24   11   15 2
    25   12   15 2
