@<TRIPOS>MOLECULE
*****
   48    51     0     0     0
SMALL
NO_CHARGES

@<TRIPOS>ATOM
      1 C1          4.8294   -1.4673   -1.1614 C.ar      1 <0>         0.0000
      2 C2          4.8713   -3.1006    0.6113 C.ar      1 <0>         0.0000
      3 C3          3.0146   -1.1854    2.0621 C.ar      1 <0>         0.0000
      4 C4          2.0593   -0.7935   -0.1164 C.ar      1 <0>         0.0000
      5 C5          5.9309   -2.0752   -1.7638 C.ar      1 <0>         0.0000
      6 C6          5.9687   -3.7236    0.0160 C.ar      1 <0>         0.0000
      7 C7          1.9183   -0.5705    2.6667 C.ar      1 <0>         0.0000
      8 C8          0.9529   -0.1826    0.4750 C.ar      1 <0>         0.0000
      9 C9          6.1208   -7.1212   -1.8657 C.ar      1 <0>         0.0000
     10 C10         7.9290   -7.4351   -3.4585 C.ar      1 <0>         0.0000
     11 C11        -2.6810   -1.5197    0.8132 C.ar      1 <0>         0.0000
     12 C12        -4.0469   -0.6050    2.6029 C.ar      1 <0>         0.0000
     13 C13         6.3747   -8.3840   -1.3239 C.ar      1 <0>         0.0000
     14 C14         8.1898   -8.6943   -2.9150 C.ar      1 <0>         0.0000
     15 C15        -3.7379   -1.3492   -0.0848 C.ar      1 <0>         0.0000
     16 C16        -5.1025   -0.4268    1.7068 C.ar      1 <0>         0.0000
     17 C17         4.2786   -1.9646    0.0335 C.ar      1 <0>         0.0000
     18 C18         3.1082   -1.3095    0.6641 C.ar      1 <0>         0.0000
     19 C19         6.4937   -3.2036   -1.1670 C.ar      1 <0>         0.0000
     20 C20         0.8919   -0.0720    1.8641 C.ar      1 <0>         0.0000
     21 C21         6.8957   -6.6606   -2.9297 C.ar      1 <0>         0.0000
     22 C22        -2.8461   -1.1514    2.1480 C.ar      1 <0>         0.0000
     23 C23         7.4095   -9.1581   -1.8521 C.ar      1 <0>         0.0000
     24 C24        -4.9388   -0.8011    0.3701 C.ar      1 <0>         0.0000
     25 O1          7.6318   -3.8487   -1.6722 O.3       1 <0>         0.0000
     26 O2         -0.2219    0.6062    2.3800 O.3       1 <0>         0.0000
     27 O3          6.5626   -5.4161   -3.4770 O.3       1 <0>         0.0000
     28 O4         -1.7800   -1.3987    3.0206 O.3       1 <0>         0.0000
     29 S1          7.7000   -4.1829   -3.3155 S.3       1 <0>         0.0000
     30 S2         -1.0222   -0.0548    3.6989 S.3       1 <0>         0.0000
     31 Cl1         7.7374  -10.7429   -1.1699 Cl        1 <0>         0.0000
     32 Cl2        -6.2677   -0.5779   -0.7562 Cl        1 <0>         0.0000
     33 H1          4.4120   -0.5707   -1.6110 H         1 <0>         0.0000
     34 H2          4.4499   -3.5248    1.5185 H         1 <0>         0.0000
     35 H3          3.8271   -1.5451    2.6872 H         1 <0>         0.0000
     36 H4          2.0897   -0.9004   -1.1971 H         1 <0>         0.0000
     37 H5          6.3491   -1.6775   -2.6831 H         1 <0>         0.0000
     38 H6          6.4235   -4.6085    0.4514 H         1 <0>         0.0000
     39 H7          1.8617   -0.4769    3.7467 H         1 <0>         0.0000
     40 H8          0.1339    0.2073   -0.1221 H         1 <0>         0.0000
     41 H9          5.3263   -6.4922   -1.4761 H         1 <0>         0.0000
     42 H10         8.5246   -7.0557   -4.2834 H         1 <0>         0.0000
     43 H11        -1.7328   -1.9394    0.4916 H         1 <0>         0.0000
     44 H12        -4.1532   -0.3193    3.6451 H         1 <0>         0.0000
     45 H13         5.7792   -8.7597   -0.4980 H         1 <0>         0.0000
     46 H14         8.9872   -9.3123   -3.3151 H         1 <0>         0.0000
     47 H15        -3.6282   -1.6336   -1.1264 H         1 <0>         0.0000
     48 H16        -6.0450   -0.0064    2.0428 H         1 <0>         0.0000
@<TRIPOS>BOND
     1    1    5 ar
     2    1   17 ar
     3    1   33 1
     4    2    6 ar
     5    2   17 ar
     6    2   34 1
     7    3    7 ar
     8    3   18 ar
     9    3   35 1
    10    4    8 ar
    11    4   18 ar
    12    4   36 1
    13    5   19 ar
    14    5   37 1
    15    6   19 ar
    16    6   38 1
    17    7   20 ar
    18    7   39 1
    19    8   20 ar
    20    8   40 1
    21    9   13 ar
    22    9   21 ar
    23    9   41 1
    24   10   14 ar
    25   10   21 ar
    26   10   42 1
    27   11   15 ar
    28   11   22 ar
    29   11   43 1
    30   12   16 ar
    31   12   22 ar
    32   12   44 1
    33   13   23 ar
    34   13   45 1
    35   14   23 ar
    36   14   46 1
    37   15   24 ar
    38   15   47 1
    39   16   24 ar
    40   16   48 1
    41   17   18 1
    42   19   25 1
    43   20   26 1
    44   21   27 1
    45   22   28 1
    46   23   31 1
    47   24   32 1
    48   25   29 1
    49   26   30 1
    50   27   29 1
    51   28   30 1
