@<TRIPOS>MOLECULE
*****
   40    41     0     0     0
SMALL
NO_CHARGES

@<TRIPOS>ATOM
      1 C1          0.3789   -3.5115   -8.5275 C.ar      1 <0>         0.0000
      2 C2         -0.8071   -2.7930   -8.4340 C.ar      1 <0>         0.0000
      3 C3          1.2885   -3.5843   -7.4558 C.ar      1 <0>         0.0000
      4 C4         -0.2482   -2.2045   -6.1344 C.ar      1 <0>         0.0000
      5 C5         -1.1237   -2.1456   -7.2327 C.ar      1 <0>         0.0000
      6 C6          0.9505   -2.9166   -6.2719 C.ar      1 <0>         0.0000
      7 C7          2.6011   -4.3707   -7.6408 C.2       1 <0>         0.0000
      8 C8         -1.9017    0.6146   -1.6031 C.3       1 <0>         0.0000
      9 C9         -0.4746    0.1901   -1.1343 C.3       1 <0>         0.0000
     10 C10        -2.1847   -0.2083   -2.8774 C.3       1 <0>         0.0000
     11 C11        -0.0249   -0.9301   -2.1030 C.3       1 <0>         0.0000
     12 C12        -1.3333   -1.4771   -2.7014 C.3       1 <0>         0.0000
     13 C13        -1.1186    0.9816   -8.1105 C.3       1 <0>         0.0000
     14 C14        -1.1656   -2.3255   -3.9500 C.3       1 <0>         0.0000
     15 C15        -1.9829    0.5326   -6.9370 C.3       1 <0>         0.0000
     16 O1          3.5516   -3.6791   -8.0775 O.co2     1 <0>         0.0000
     17 O2          2.5077   -5.5892   -7.3606 O.co2     1 <0>         0.0000
     18 O3         -3.2631   -1.2271   -8.4786 O.2       1 <0>         0.0000
     19 O4         -3.4132   -1.4893   -5.9542 O.2       1 <0>         0.0000
     20 O5         -0.5504   -1.5152   -4.9834 O.3       1 <0>         0.0000
     21 S1         -2.6123   -1.1610   -7.1520 S.o2      1 <0>         0.0000
     22 Cl1         2.0601   -2.9379   -4.9040 Cl        1 <0>         0.0000
     23 H1          0.6310   -4.0250   -9.4513 H         1 <0>         0.0000
     24 H2         -1.4953   -2.7150   -9.2698 H         1 <0>         0.0000
     25 H3         -2.6397    0.3771   -0.8281 H         1 <0>         0.0000
     26 H4         -1.9751    1.6916   -1.7868 H         1 <0>         0.0000
     27 H5          0.2261    1.0312   -1.1409 H         1 <0>         0.0000
     28 H6         -0.5087   -0.1808   -0.1038 H         1 <0>         0.0000
     29 H7         -3.2450   -0.4257   -3.0347 H         1 <0>         0.0000
     30 H8         -1.8332    0.3294   -3.7628 H         1 <0>         0.0000
     31 H9          0.5854   -0.5226   -2.9145 H         1 <0>         0.0000
     32 H10         0.5702   -1.7065   -1.6117 H         1 <0>         0.0000
     33 H11        -1.8222   -2.1233   -1.9562 H         1 <0>         0.0000
     34 H12        -0.2249    0.3585   -8.2024 H         1 <0>         0.0000
     35 H13        -1.6775    0.9274   -9.0482 H         1 <0>         0.0000
     36 H14        -0.7959    2.0165   -7.9541 H         1 <0>         0.0000
     37 H15        -2.1355   -2.6703   -4.3210 H         1 <0>         0.0000
     38 H16        -0.5210   -3.1877   -3.7468 H         1 <0>         0.0000
     39 H17        -2.8905    1.1350   -6.8290 H         1 <0>         0.0000
     40 H18        -1.4415    0.5240   -5.9900 H         1 <0>         0.0000
@<TRIPOS>BOND
     1    1    2 ar
     2    1    3 ar
     3    1   23 1
     4    2    5 ar
     5    2   24 1
     6    3    6 ar
     7    3    7 1
     8    4    5 ar
     9    4    6 ar
    10    4   20 1
    11    5   21 1
    12    6   22 1
    13    7   16 1
    14    7   17 2
    15    8    9 1
    16    8   10 1
    17    8   25 1
    18    8   26 1
    19    9   11 1
    20    9   27 1
    21    9   28 1
    22   10   12 1
    23   10   29 1
    24   10   30 1
    25   11   12 1
    26   11   31 1
    27   11   32 1
    28   12   14 1
    29   12   33 1
    30   13   15 1
    31   13   34 1
    32   13   35 1
    33   13   36 1
    34   14   20 1
    35   14   37 1
    36   14   38 1
    37   15   21 1
    38   15   39 1
    39   15   40 1
    40   18   21 2
    41   19   21 2
