@<TRIPOS>MOLECULE
*****
   48    51     0     0     0
SMALL
NO_CHARGES

@<TRIPOS>ATOM
      1 C1          3.9523   -2.6286   -1.2495 C.ar      1 <0>         0.0000
      2 C2          5.4323   -1.5881    0.3484 C.ar      1 <0>         0.0000
      3 C3          2.9867   -1.4501    2.1357 C.ar      1 <0>         0.0000
      4 C4          1.7783   -1.0010    0.0970 C.ar      1 <0>         0.0000
      5 C5          5.0478   -3.0480   -2.0045 C.ar      1 <0>         0.0000
      6 C6          6.5369   -1.9990   -0.3982 C.ar      1 <0>         0.0000
      7 C7          1.8928   -1.0268    2.8899 C.ar      1 <0>         0.0000
      8 C8          0.6789   -0.5680    0.8394 C.ar      1 <0>         0.0000
      9 C9          6.4853   -3.8966   -6.8167 C.ar      1 <0>         0.0000
     10 C10         7.4731   -5.0563   -4.9216 C.ar      1 <0>         0.0000
     11 C11        -0.8611    2.9697    1.0084 C.ar      1 <0>         0.0000
     12 C12        -2.2432    3.2945    2.9801 C.ar      1 <0>         0.0000
     13 C13         6.5607   -5.0642   -7.5776 C.ar      1 <0>         0.0000
     14 C14         7.5552   -6.2229   -5.6877 C.ar      1 <0>         0.0000
     15 C15        -1.8707    3.5095    0.2074 C.ar      1 <0>         0.0000
     16 C16        -3.2570    3.8267    2.1812 C.ar      1 <0>         0.0000
     17 C17         4.1224   -1.8917   -0.0639 C.ar      1 <0>         0.0000
     18 C18         2.9524   -1.4448    0.7292 C.ar      1 <0>         0.0000
     19 C19         6.3347   -2.7263   -1.5707 C.ar      1 <0>         0.0000
     20 C20         0.7440   -0.5868    2.2320 C.ar      1 <0>         0.0000
     21 C21         6.9447   -3.8988   -5.4977 C.ar      1 <0>         0.0000
     22 C22        -1.0535    2.8708    2.3861 C.ar      1 <0>         0.0000
     23 C23         7.0995   -6.2198   -7.0068 C.ar      1 <0>         0.0000
     24 C24        -3.0623    3.9300    0.8011 C.ar      1 <0>         0.0000
     25 O1          7.4465   -3.1847   -2.2907 O.3       1 <0>         0.0000
     26 O2         -0.4122   -0.1943    2.9210 O.3       1 <0>         0.0000
     27 O3          6.7808   -2.6993   -4.7969 O.3       1 <0>         0.0000
     28 O4          0.0178    2.3794    3.1415 O.3       1 <0>         0.0000
     29 S1          7.9086   -2.2674   -3.6318 S.3       1 <0>         0.0000
     30 S2         -0.2601    1.0105    4.0819 S.3       1 <0>         0.0000
     31 Cl1         7.2006   -7.6903   -7.9625 Cl        1 <0>         0.0000
     32 Cl2        -4.3387    4.6001   -0.2021 Cl        1 <0>         0.0000
     33 H1          2.9520   -2.9039   -1.5715 H         1 <0>         0.0000
     34 H2          5.5896   -0.9972    1.2462 H         1 <0>         0.0000
     35 H3          3.8692   -1.8214    2.6491 H         1 <0>         0.0000
     36 H4          1.7342   -0.9592   -0.9877 H         1 <0>         0.0000
     37 H5          4.9151   -3.6261   -2.9134 H         1 <0>         0.0000
     38 H6          7.5486   -1.7560   -0.0868 H         1 <0>         0.0000
     39 H7          1.9273   -1.0404    3.9751 H         1 <0>         0.0000
     40 H8         -0.2267   -0.2122    0.3574 H         1 <0>         0.0000
     41 H9          6.0775   -2.9819   -7.2360 H         1 <0>         0.0000
     42 H10         7.8088   -5.0570   -3.8907 H         1 <0>         0.0000
     43 H11         0.0761    2.6300    0.5783 H         1 <0>         0.0000
     44 H12        -2.3785    3.2040    4.0536 H         1 <0>         0.0000
     45 H13         6.2117   -5.0739   -8.6052 H         1 <0>         0.0000
     46 H14         7.9632   -7.1308   -5.2550 H         1 <0>         0.0000
     47 H15        -1.7355    3.5964   -0.8660 H         1 <0>         0.0000
     48 H16        -4.1879    4.1634    2.6261 H         1 <0>         0.0000
@<TRIPOS>BOND
     1    1    5 ar
     2    1   17 ar
     3    1   33 1
     4    2    6 ar
     5    2   17 ar
     6    2   34 1
     7    3    7 ar
     8    3   18 ar
     9    3   35 1
    10    4    8 ar
    11    4   18 ar
    12    4   36 1
    13    5   19 ar
    14    5   37 1
    15    6   19 ar
    16    6   38 1
    17    7   20 ar
    18    7   39 1
    19    8   20 ar
    20    8   40 1
    21    9   13 ar
    22    9   21 ar
    23    9   41 1
    24   10   14 ar
    25   10   21 ar
    26   10   42 1
    27   11   15 ar
    28   11   22 ar
    29   11   43 1
    30   12   16 ar
    31   12   22 ar
    32   12   44 1
    33   13   23 ar
    34   13   45 1
    35   14   23 ar
    36   14   46 1
    37   15   24 ar
    38   15   47 1
    39   16   24 ar
    40   16   48 1
    41   17   18 1
    42   19   25 1
    43   20   26 1
    44   21   27 1
    45   22   28 1
    46   23   31 1
    47   24   32 1
    48   25   29 1
    49   26   30 1
    50   27   29 1
    51   28   30 1
