@<TRIPOS>MOLECULE
*****
   48    51     0     0     0
SMALL
NO_CHARGES

@<TRIPOS>ATOM
      1 C1          5.7885   -2.3066   -2.0035 C.ar      1 <0>         0.0000
      2 C2          5.2108   -4.5458   -1.3146 C.ar      1 <0>         0.0000
      3 C3          3.6122   -3.1500    0.8467 C.ar      1 <0>         0.0000
      4 C4          3.1073   -1.5050   -0.8396 C.ar      1 <0>         0.0000
      5 C5          6.8911   -2.8003   -2.6984 C.ar      1 <0>         0.0000
      6 C6          6.3137   -5.0514   -2.0027 C.ar      1 <0>         0.0000
      7 C7          2.6407   -2.6080    1.6888 C.ar      1 <0>         0.0000
      8 C8          2.1259   -0.9562   -0.0159 C.ar      1 <0>         0.0000
      9 C9          9.3176   -1.5879   -0.6249 C.ar      1 <0>         0.0000
     10 C10         8.3985   -3.6140    0.3429 C.ar      1 <0>         0.0000
     11 C11         1.1136   -1.4955    6.6910 C.ar      1 <0>         0.0000
     12 C12         1.2136    0.2924    5.0459 C.ar      1 <0>         0.0000
     13 C13         8.4698   -0.8169    0.1734 C.ar      1 <0>         0.0000
     14 C14         7.5407   -2.8448    1.1298 C.ar      1 <0>         0.0000
     15 C15         1.2987   -0.5679    7.7179 C.ar      1 <0>         0.0000
     16 C16         1.3893    1.2210    6.0753 C.ar      1 <0>         0.0000
     17 C17         4.9501   -3.1641   -1.2716 C.ar      1 <0>         0.0000
     18 C18         3.8682   -2.6118   -0.4254 C.ar      1 <0>         0.0000
     19 C19         7.1688   -4.1648   -2.6567 C.ar      1 <0>         0.0000
     20 C20         1.9008   -1.5112    1.2449 C.ar      1 <0>         0.0000
     21 C21         9.2565   -2.9804   -0.5567 C.ar      1 <0>         0.0000
     22 C22         1.0708   -1.0596    5.3655 C.ar      1 <0>         0.0000
     23 C23         7.5673   -1.4530    1.0279 C.ar      1 <0>         0.0000
     24 C24         1.4319    0.7859    7.4011 C.ar      1 <0>         0.0000
     25 O1          8.3732   -4.6026   -3.2374 O.3       1 <0>         0.0000
     26 O2          0.9457   -0.8622    2.0390 O.3       1 <0>         0.0000
     27 O3         10.0866   -3.6679   -1.4587 O.3       1 <0>         0.0000
     28 O4          0.9406   -2.0586    4.3939 O.3       1 <0>         0.0000
     29 S1          9.5304   -5.1139   -2.1197 S.3       1 <0>         0.0000
     30 S2         -0.0344   -1.7716    3.0534 S.3       1 <0>         0.0000
     31 Cl1         6.4300   -0.4994    1.9645 Cl        1 <0>         0.0000
     32 Cl2         1.6606    1.9570    8.6902 Cl        1 <0>         0.0000
     33 H1          5.6245   -1.2339   -1.9666 H         1 <0>         0.0000
     34 H2          4.5451   -5.2333   -0.8001 H         1 <0>         0.0000
     35 H3          4.2114   -3.9818    1.2061 H         1 <0>         0.0000
     36 H4          3.2637   -1.0837   -1.8287 H         1 <0>         0.0000
     37 H5          7.5792   -2.1343   -3.2089 H         1 <0>         0.0000
     38 H6          6.5325   -6.1152   -2.0039 H         1 <0>         0.0000
     39 H7          2.4822   -3.0140    2.6818 H         1 <0>         0.0000
     40 H8          1.5273   -0.1093   -0.3379 H         1 <0>         0.0000
     41 H9         10.0007   -1.1209   -1.3277 H         1 <0>         0.0000
     42 H10         8.3556   -4.6961    0.3920 H         1 <0>         0.0000
     43 H11         1.0004   -2.5533    6.9080 H         1 <0>         0.0000
     44 H12         1.1987    0.6188    4.0119 H         1 <0>         0.0000
     45 H13         8.4917    0.2664    0.1102 H         1 <0>         0.0000
     46 H14         6.8425   -3.3258    1.8067 H         1 <0>         0.0000
     47 H15         1.3313   -0.8927    8.7529 H         1 <0>         0.0000
     48 H16         1.5034    2.2754    5.8448 H         1 <0>         0.0000
@<TRIPOS>BOND
     1    1    5 ar
     2    1   17 ar
     3    1   33 1
     4    2    6 ar
     5    2   17 ar
     6    2   34 1
     7    3    7 ar
     8    3   18 ar
     9    3   35 1
    10    4    8 ar
    11    4   18 ar
    12    4   36 1
    13    5   19 ar
    14    5   37 1
    15    6   19 ar
    16    6   38 1
    17    7   20 ar
    18    7   39 1
    19    8   20 ar
    20    8   40 1
    21    9   13 ar
    22    9   21 ar
    23    9   41 1
    24   10   14 ar
    25   10   21 ar
    26   10   42 1
    27   11   15 ar
    28   11   22 ar
    29   11   43 1
    30   12   16 ar
    31   12   22 ar
    32   12   44 1
    33   13   23 ar
    34   13   45 1
    35   14   23 ar
    36   14   46 1
    37   15   24 ar
    38   15   47 1
    39   16   24 ar
    40   16   48 1
    41   17   18 1
    42   19   25 1
    43   20   26 1
    44   21   27 1
    45   22   28 1
    46   23   31 1
    47   24   32 1
    48   25   29 1
    49   26   30 1
    50   27   29 1
    51   28   30 1
