@<TRIPOS>MOLECULE
*****
   28    30     0     0     0
SMALL
NO_CHARGES

@<TRIPOS>ATOM
      1 C1         -2.4915   -2.5248   -2.6114 C.ar      1 <0>         0.0000
      2 C2          0.4384    1.4270    2.5108 C.ar      1 <0>         0.0000
      3 C3          0.3368    0.4100    1.5401 C.ar      1 <0>         0.0000
      4 C4         -2.4632   -3.5698   -3.5272 C.ar      1 <0>         0.0000
      5 C5         -2.0251    0.0266    2.0911 C.ar      1 <0>         0.0000
      6 C6         -0.6107   -4.5596   -2.2992 C.ar      1 <0>         0.0000
      7 C7         -1.5999   -2.4580   -1.5250 C.ar      1 <0>         0.0000
      8 C8         -0.7005    1.7170    3.2368 C.ar      1 <0>         0.0000
      9 C9         -1.8995    1.0318    3.0297 C.ar      1 <0>         0.0000
     10 C10        -0.8669   -0.2592    1.3466 C.ar      1 <0>         0.0000
     11 C11        -0.6655   -3.4980   -1.3991 C.ar      1 <0>         0.0000
     12 C12        -1.5154   -4.5849   -3.3589 C.ar      1 <0>         0.0000
     13 C13        -1.7398   -1.2809   -0.6188 C.2       1 <0>         0.0000
     14 C14        -2.2755    2.6624    4.5135 C.3       1 <0>         0.0000
     15 O1         -2.5572   -0.3998   -0.7949 O.2       1 <0>         0.0000
     16 O2         -0.8625    2.6326    4.2569 O.3       1 <0>         0.0000
     17 O3         -2.8549    1.4935    3.9086 O.3       1 <0>         0.0000
     18 O4         -0.8596   -1.3116    0.4175 O.3       1 <0>         0.0000
     19 F1          0.2315   -3.5183   -0.3958 F         1 <0>         0.0000
     20 Cl1        -1.4584   -5.9121   -4.4953 Cl        1 <0>         0.0000
     21 H1         -3.2145   -1.7225   -2.7151 H         1 <0>         0.0000
     22 H2          1.3703    1.9557    2.6815 H         1 <0>         0.0000
     23 H3          1.1953    0.1337    0.9370 H         1 <0>         0.0000
     24 H4         -3.1600   -3.6032   -4.3576 H         1 <0>         0.0000
     25 H5         -2.9578   -0.4997    1.9286 H         1 <0>         0.0000
     26 H6          0.1289   -5.3405   -2.1603 H         1 <0>         0.0000
     27 H7         -2.4486    2.6346    5.5911 H         1 <0>         0.0000
     28 H8         -2.7103    3.5606    4.0539 H         1 <0>         0.0000
@<TRIPOS>BOND
     1    1    4 ar
     2    1    7 ar
     3    1   21 1
     4    2    3 ar
     5    2    8 ar
     6    2   22 1
     7    3   10 ar
     8    3   23 1
     9    4   12 ar
    10    4   24 1
    11    5    9 ar
    12    5   10 ar
    13    5   25 1
    14    6   11 ar
    15    6   12 ar
    16    6   26 1
    17    7   11 ar
    18    7   13 1
    19    8    9 ar
    20    8   16 1
    21    9   17 1
    22   10   18 1
    23   11   19 1
    24   12   20 1
    25   13   15 2
    26   13   18 1
    27   14   16 1
    28   14   17 1
    29   14   27 1
    30   14   28 1
