@<TRIPOS>MOLECULE
*****
   48    51     0     0     0
SMALL
NO_CHARGES

@<TRIPOS>ATOM
      1 C1          6.2315   -0.7450    0.3468 C.ar      1 <0>         0.0000
      2 C2          5.7857   -2.7478    1.6118 C.ar      1 <0>         0.0000
      3 C3          3.6481   -1.1010    3.0250 C.ar      1 <0>         0.0000
      4 C4          3.3591   -0.0717    0.8608 C.ar      1 <0>         0.0000
      5 C5          7.3503   -1.3420   -0.2275 C.ar      1 <0>         0.0000
      6 C6          6.8979   -3.3628    1.0352 C.ar      1 <0>         0.0000
      7 C7          2.4122   -0.6013    3.4362 C.ar      1 <0>         0.0000
      8 C8          2.1203    0.4288    1.2573 C.ar      1 <0>         0.0000
      9 C9          5.1007   -3.5467   -1.8775 C.ar      1 <0>         0.0000
     10 C10         6.0613   -2.0918   -3.5671 C.ar      1 <0>         0.0000
     11 C11        -0.7844   -0.6715   -0.5701 C.ar      1 <0>         0.0000
     12 C12        -2.5997    0.3288    0.6977 C.ar      1 <0>         0.0000
     13 C13         3.9439   -2.7654   -1.8550 C.ar      1 <0>         0.0000
     14 C14         4.9041   -1.3096   -3.5522 C.ar      1 <0>         0.0000
     15 C15        -1.2385   -0.0404   -1.7297 C.ar      1 <0>         0.0000
     16 C16        -3.0502    0.9683   -0.4596 C.ar      1 <0>         0.0000
     17 C17         5.4085   -1.4444    1.2486 C.ar      1 <0>         0.0000
     18 C18         4.1387   -0.8544    1.7297 C.ar      1 <0>         0.0000
     19 C19         7.6501   -2.6675    0.0899 C.ar      1 <0>         0.0000
     20 C20         1.6541    0.1553    2.5417 C.ar      1 <0>         0.0000
     21 C21         6.1542   -3.1983   -2.7219 C.ar      1 <0>         0.0000
     22 C22        -1.4705   -0.4875    0.6311 C.ar      1 <0>         0.0000
     23 C23         3.8584   -1.6519   -2.6921 C.ar      1 <0>         0.0000
     24 C24        -2.3680    0.7779   -1.6639 C.ar      1 <0>         0.0000
     25 O1          8.6720   -3.3905   -0.5463 O.3       1 <0>         0.0000
     26 O2          0.4060    0.6905    2.8900 O.3       1 <0>         0.0000
     27 O3          7.2992   -4.0101   -2.7068 O.3       1 <0>         0.0000
     28 O4         -0.9776   -1.2040    1.7294 O.3       1 <0>         0.0000
     29 S1          8.7371   -3.2686   -2.2257 S.3       1 <0>         0.0000
     30 S2         -0.8216   -0.4196    3.2082 S.3       1 <0>         0.0000
     31 Cl1         2.4057   -0.6569   -2.6654 Cl        1 <0>         0.0000
     32 Cl2        -2.9381    1.5848   -3.1166 Cl        1 <0>         0.0000
     33 H1          5.9904    0.2811    0.0856 H         1 <0>         0.0000
     34 H2          5.1645   -3.3175    2.2972 H         1 <0>         0.0000
     35 H3          4.2472   -1.6742    3.7272 H         1 <0>         0.0000
     36 H4          3.6967    0.1069   -0.1543 H         1 <0>         0.0000
     37 H5          7.9526   -0.8038   -0.9518 H         1 <0>         0.0000
     38 H6          7.1558   -4.3927    1.2627 H         1 <0>         0.0000
     39 H7          2.0338   -0.7997    4.4347 H         1 <0>         0.0000
     40 H8          1.5013    1.0060    0.5777 H         1 <0>         0.0000
     41 H9          5.2030   -4.4055   -1.2234 H         1 <0>         0.0000
     42 H10         6.8878   -1.8371   -4.2235 H         1 <0>         0.0000
     43 H11         0.0996   -1.3005   -0.5884 H         1 <0>         0.0000
     44 H12        -3.1156    0.4744    1.6415 H         1 <0>         0.0000
     45 H13         3.1285   -3.0107   -1.1826 H         1 <0>         0.0000
     46 H14         4.8152   -0.4461   -4.2035 H         1 <0>         0.0000
     47 H15        -0.7157   -0.1799   -2.6705 H         1 <0>         0.0000
     48 H16        -3.9274    1.6066   -0.4264 H         1 <0>         0.0000
@<TRIPOS>BOND
     1    1    5 ar
     2    1   17 ar
     3    1   33 1
     4    2    6 ar
     5    2   17 ar
     6    2   34 1
     7    3    7 ar
     8    3   18 ar
     9    3   35 1
    10    4    8 ar
    11    4   18 ar
    12    4   36 1
    13    5   19 ar
    14    5   37 1
    15    6   19 ar
    16    6   38 1
    17    7   20 ar
    18    7   39 1
    19    8   20 ar
    20    8   40 1
    21    9   13 ar
    22    9   21 ar
    23    9   41 1
    24   10   14 ar
    25   10   21 ar
    26   10   42 1
    27   11   15 ar
    28   11   22 ar
    29   11   43 1
    30   12   16 ar
    31   12   22 ar
    32   12   44 1
    33   13   23 ar
    34   13   45 1
    35   14   23 ar
    36   14   46 1
    37   15   24 ar
    38   15   47 1
    39   16   24 ar
    40   16   48 1
    41   17   18 1
    42   19   25 1
    43   20   26 1
    44   21   27 1
    45   22   28 1
    46   23   31 1
    47   24   32 1
    48   25   29 1
    49   26   30 1
    50   27   29 1
    51   28   30 1
