@<TRIPOS>MOLECULE
*****
   21    21     0     0     0
SMALL
NO_CHARGES

@<TRIPOS>ATOM
      1 C1         -1.5915    4.0164    0.4963 C.2       1 <0>         0.0000
      2 C2         -2.8934    3.7341    0.1790 C.2       1 <0>         0.0000
      3 C3         -0.8220    2.8477    0.8220 C.2       1 <0>         0.0000
      4 C4         -1.5776    1.6982    0.7442 C.2       1 <0>         0.0000
      5 C5         -1.3350   -1.2889   -1.0711 C.2       1 <0>         0.0000
      6 C6         -0.7044   -0.3178   -0.4043 C.2       1 <0>         0.0000
      7 C7          0.6457    2.9101    1.1645 C.3       1 <0>         0.0000
      8 C8         -1.1366    0.2646    0.9284 C.3       1 <0>         0.0000
      9 N1         -2.2239   -0.5198    1.5267 N.3       1 <0>         0.0000
     10 S1         -3.2235    2.0361    0.2674 S.3       1 <0>         0.0000
     11 H1         -1.1839    5.0232    0.5107 H         1 <0>         0.0000
     12 H2         -3.6827    4.4288   -0.0802 H         1 <0>         0.0000
     13 H3         -0.9644   -1.6401   -2.0307 H         1 <0>         0.0000
     14 H4         -2.2482   -1.7378   -0.6907 H         1 <0>         0.0000
     15 H5          0.1910    0.1396   -0.8238 H         1 <0>         0.0000
     16 H6          0.8748    3.8224    1.7242 H         1 <0>         0.0000
     17 H7          0.9643    2.0581    1.7715 H         1 <0>         0.0000
     18 H8          1.2662    2.9182    0.2600 H         1 <0>         0.0000
     19 H9         -0.2366    0.2913    1.5660 H         1 <0>         0.0000
     20 H10        -2.4814   -0.1124    2.4236 H         1 <0>         0.0000
     21 H11        -1.9030   -1.4705    1.7030 H         1 <0>         0.0000
@<TRIPOS>BOND
     1    1    2 2
     2    1    3 1
     3    1   11 1
     4    2   10 1
     5    2   12 1
     6    3    4 2
     7    3    7 1
     8    4    8 1
     9    4   10 1
    10    5    6 2
    11    5   13 1
    12    5   14 1
    13    6    8 1
    14    6   15 1
    15    7   16 1
    16    7   17 1
    17    7   18 1
    18    8    9 1
    19    8   19 1
    20    9   20 1
    21    9   21 1
