@<TRIPOS>MOLECULE
*****
   40    41     0     0     0
SMALL
NO_CHARGES

@<TRIPOS>ATOM
      1 C1          1.0020   -3.2194   -9.0989 C.ar      1 <0>         0.0000
      2 C2         -0.1892   -2.5362   -8.8900 C.ar      1 <0>         0.0000
      3 C3          1.9314   -3.4235   -8.0620 C.ar      1 <0>         0.0000
      4 C4          0.4344   -2.1899   -6.5579 C.ar      1 <0>         0.0000
      5 C5         -0.4761   -2.0182   -7.6178 C.ar      1 <0>         0.0000
      6 C6          1.6186   -2.8987   -6.8024 C.ar      1 <0>         0.0000
      7 C7          3.2254   -4.2063   -8.3564 C.2       1 <0>         0.0000
      8 C8          0.2036    1.4584   -1.7071 C.3       1 <0>         0.0000
      9 C9          0.0070   -0.0204   -1.2517 C.3       1 <0>         0.0000
     10 C10         0.6029    1.3904   -3.2011 C.3       1 <0>         0.0000
     11 C11         0.3444   -0.8878   -2.4850 C.3       1 <0>         0.0000
     12 C12         0.0655    0.0326   -3.6839 C.3       1 <0>         0.0000
     13 C13        -2.7749   -2.7250   -5.1293 C.3       1 <0>         0.0000
     14 C14         0.6849   -0.4244   -4.9883 C.3       1 <0>         0.0000
     15 C15        -3.1246   -2.4159   -6.5798 C.3       1 <0>         0.0000
     16 O1          4.1730   -3.4893   -8.7566 O.co2     1 <0>         0.0000
     17 O2          3.1224   -5.4441   -8.1847 O.co2     1 <0>         0.0000
     18 O3         -1.9236   -0.0228   -6.4967 O.2       1 <0>         0.0000
     19 O4         -2.6326   -0.9914   -8.7394 O.2       1 <0>         0.0000
     20 O5          0.1288   -1.7213   -5.3053 O.3       1 <0>         0.0000
     21 S1         -2.0477   -1.1887   -7.3953 S.o2      1 <0>         0.0000
     22 Cl1         2.7268   -3.1411   -5.4546 Cl        1 <0>         0.0000
     23 H1          1.2338   -3.6158  -10.0838 H         1 <0>         0.0000
     24 H2         -0.9022   -2.3813   -9.6934 H         1 <0>         0.0000
     25 H3         -0.7290    2.0205   -1.5890 H         1 <0>         0.0000
     26 H4          0.9613    1.9774   -1.1109 H         1 <0>         0.0000
     27 H5          0.6323   -0.2754   -0.3898 H         1 <0>         0.0000
     28 H6         -1.0323   -0.1852   -0.9462 H         1 <0>         0.0000
     29 H7          0.2141    2.2311   -3.7845 H         1 <0>         0.0000
     30 H8          1.6963    1.4016   -3.3008 H         1 <0>         0.0000
     31 H9          1.4070   -1.1616   -2.4853 H         1 <0>         0.0000
     32 H10        -0.2259   -1.8192   -2.5277 H         1 <0>         0.0000
     33 H11        -1.0176    0.1106   -3.8408 H         1 <0>         0.0000
     34 H12        -1.8082   -3.2220   -5.0414 H         1 <0>         0.0000
     35 H13        -2.7358   -1.8076   -4.5378 H         1 <0>         0.0000
     36 H14        -3.5449   -3.3825   -4.7096 H         1 <0>         0.0000
     37 H15         1.7744   -0.5155   -4.8962 H         1 <0>         0.0000
     38 H16         0.4422    0.2706   -5.7975 H         1 <0>         0.0000
     39 H17        -4.1156   -1.9601   -6.6751 H         1 <0>         0.0000
     40 H18        -3.0873   -3.2996   -7.2222 H         1 <0>         0.0000
@<TRIPOS>BOND
     1    1    2 ar
     2    1    3 ar
     3    1   23 1
     4    2    5 ar
     5    2   24 1
     6    3    6 ar
     7    3    7 1
     8    4    5 ar
     9    4    6 ar
    10    4   20 1
    11    5   21 1
    12    6   22 1
    13    7   16 1
    14    7   17 2
    15    8    9 1
    16    8   10 1
    17    8   25 1
    18    8   26 1
    19    9   11 1
    20    9   27 1
    21    9   28 1
    22   10   12 1
    23   10   29 1
    24   10   30 1
    25   11   12 1
    26   11   31 1
    27   11   32 1
    28   12   14 1
    29   12   33 1
    30   13   15 1
    31   13   34 1
    32   13   35 1
    33   13   36 1
    34   14   20 1
    35   14   37 1
    36   14   38 1
    37   15   21 1
    38   15   39 1
    39   15   40 1
    40   18   21 2
    41   19   21 2
