@<TRIPOS>MOLECULE
*****
   27    28     0     0     0
SMALL
NO_CHARGES

@<TRIPOS>ATOM
      1 C1          1.8027   -1.1100   -0.0703 C.ar      1 <0>         0.0000
      2 C2          0.5018    3.0351    5.8304 C.ar      1 <0>         0.0000
      3 C3          0.9576   -1.9872    0.6172 C.ar      1 <0>         0.0000
      4 C4          1.7414    2.5126    6.2134 C.ar      1 <0>         0.0000
      5 C5          2.6267   -0.2233    0.6257 C.ar      1 <0>         0.0000
      6 C6         -0.3632    2.2954    5.0216 C.ar      1 <0>         0.0000
      7 C7          0.9458   -1.9727    2.0124 C.ar      1 <0>         0.0000
      8 C8          2.1093    1.2376    5.7821 C.ar      1 <0>         0.0000
      9 C9          2.6237   -0.2107    2.0265 C.ar      1 <0>         0.0000
     10 C10        -0.0010    1.0118    4.5929 C.ar      1 <0>         0.0000
     11 C11         1.7787   -1.0989    2.7120 C.ar      1 <0>         0.0000
     12 C12         1.2417    0.4887    4.9865 C.ar      1 <0>         0.0000
     13 O1          0.7054   -2.1267    4.8869 O.2       1 <0>         0.0000
     14 O2          3.1247   -1.3536    5.0056 O.2       1 <0>         0.0000
     15 O3          3.3958    0.6489    2.7527 O.3       1 <0>         0.0000
     16 O4         -0.8020    0.2565    3.7866 O.3       1 <0>         0.0000
     17 S1          1.7539   -1.1690    4.5098 S.o2      1 <0>         0.0000
     18 H1          1.8205   -1.1089   -1.1570 H         1 <0>         0.0000
     19 H2          0.2036    4.0278    6.1573 H         1 <0>         0.0000
     20 H3          0.3136   -2.6716    0.0734 H         1 <0>         0.0000
     21 H4          2.4144    3.0924    6.8377 H         1 <0>         0.0000
     22 H5          3.2771    0.4614    0.0837 H         1 <0>         0.0000
     23 H6         -1.3239    2.7111    4.7216 H         1 <0>         0.0000
     24 H7          0.2938   -2.6268    2.5823 H         1 <0>         0.0000
     25 H8          3.0683    0.8030    6.0451 H         1 <0>         0.0000
     26 H9          3.9285    1.1903    2.1487 H         1 <0>         0.0000
     27 H10        -1.6237    0.7402    3.6064 H         1 <0>         0.0000
@<TRIPOS>BOND
     1    1    3 ar
     2    1    5 ar
     3    1   18 1
     4    2    4 ar
     5    2    6 ar
     6    2   19 1
     7    3    7 ar
     8    3   20 1
     9    4    8 ar
    10    4   21 1
    11    5    9 ar
    12    5   22 1
    13    6   10 ar
    14    6   23 1
    15    7   11 ar
    16    7   24 1
    17    8   12 ar
    18    8   25 1
    19    9   11 ar
    20    9   15 1
    21   10   12 ar
    22   10   16 1
    23   11   17 1
    24   12   17 1
    25   13   17 2
    26   14   17 2
    27   15   26 1
    28   16   27 1
