@<TRIPOS>MOLECULE
*****
   48    51     0     0     0
SMALL
NO_CHARGES

@<TRIPOS>ATOM
      1 C1          5.2636   -2.1797   -0.2660 C.ar      1 <0>         0.0000
      2 C2          4.1658   -3.8931    1.0279 C.ar      1 <0>         0.0000
      3 C3          2.2667   -1.6854    1.8687 C.ar      1 <0>         0.0000
      4 C4          2.4843   -0.9368   -0.4115 C.ar      1 <0>         0.0000
      5 C5          6.3695   -3.0108   -0.4538 C.ar      1 <0>         0.0000
      6 C6          5.2653   -4.7330    0.8561 C.ar      1 <0>         0.0000
      7 C7          1.1139   -0.9185    2.0235 C.ar      1 <0>         0.0000
      8 C8          1.3215   -0.1777   -0.2766 C.ar      1 <0>         0.0000
      9 C9          8.9095   -6.2128   -2.7471 C.ar      1 <0>         0.0000
     10 C10        10.4359   -4.5149   -3.5832 C.ar      1 <0>         0.0000
     11 C11        -0.6226   -3.0621   -0.0576 C.ar      1 <0>         0.0000
     12 C12        -1.5551   -3.3512    2.1662 C.ar      1 <0>         0.0000
     13 C13         9.2291   -7.0275   -3.8367 C.ar      1 <0>         0.0000
     14 C14        10.7472   -5.3257   -4.6763 C.ar      1 <0>         0.0000
     15 C15         0.1948   -4.1772    0.1354 C.ar      1 <0>         0.0000
     16 C16        -0.7424   -4.4697    2.3625 C.ar      1 <0>         0.0000
     17 C17         4.1457   -2.6009    0.4738 C.ar      1 <0>         0.0000
     18 C18         2.9632   -1.7258    0.6476 C.ar      1 <0>         0.0000
     19 C19         6.3611   -4.2847    0.1173 C.ar      1 <0>         0.0000
     20 C20         0.6294   -0.1939    0.9338 C.ar      1 <0>         0.0000
     21 C21         9.5226   -4.9637   -2.6274 C.ar      1 <0>         0.0000
     22 C22        -1.4762   -2.6478    0.9640 C.ar      1 <0>         0.0000
     23 C23        10.1427   -6.5795   -4.7924 C.ar      1 <0>         0.0000
     24 C24         0.1325   -4.8656    1.3483 C.ar      1 <0>         0.0000
     25 O1          7.4028   -5.2067   -0.0612 O.3       1 <0>         0.0000
     26 O2         -0.5777    0.5251    0.9566 O.3       1 <0>         0.0000
     27 O3          9.2251   -4.0670   -1.5951 O.3       1 <0>         0.0000
     28 O4         -2.2501   -1.4969    0.7474 O.3       1 <0>         0.0000
     29 S1          8.9897   -4.6619   -0.0391 S.3       1 <0>         0.0000
     30 S2         -1.8874   -0.1806    1.7410 S.3       1 <0>         0.0000
     31 Cl1        10.5349   -7.6051   -6.1637 Cl        1 <0>         0.0000
     32 Cl2         1.1776   -6.2559    1.6090 Cl        1 <0>         0.0000
     33 H1          5.2810   -1.1792   -0.6893 H         1 <0>         0.0000
     34 H2          3.3048   -4.2597    1.5779 H         1 <0>         0.0000
     35 H3          2.6357   -2.2579    2.7148 H         1 <0>         0.0000
     36 H4          2.9926   -0.9589   -1.3715 H         1 <0>         0.0000
     37 H5          7.2214   -2.6735   -1.0341 H         1 <0>         0.0000
     38 H6          5.2793   -5.7340    1.2768 H         1 <0>         0.0000
     39 H7          0.5742   -0.9196    2.9644 H         1 <0>         0.0000
     40 H8          0.9181    0.3918   -1.1084 H         1 <0>         0.0000
     41 H9          8.1867   -6.5451   -2.0101 H         1 <0>         0.0000
     42 H10        10.8960   -3.5388   -3.4634 H         1 <0>         0.0000
     43 H11        -0.5738   -2.4898   -0.9777 H         1 <0>         0.0000
     44 H12        -2.2317   -3.0182    2.9474 H         1 <0>         0.0000
     45 H13         8.7613   -8.0008   -3.9453 H         1 <0>         0.0000
     46 H14        11.4579   -4.9902   -5.4248 H         1 <0>         0.0000
     47 H15         0.8864   -4.4926   -0.6388 H         1 <0>         0.0000
     48 H16        -0.7864   -5.0261    3.2933 H         1 <0>         0.0000
@<TRIPOS>BOND
     1    1    5 ar
     2    1   17 ar
     3    1   33 1
     4    2    6 ar
     5    2   17 ar
     6    2   34 1
     7    3    7 ar
     8    3   18 ar
     9    3   35 1
    10    4    8 ar
    11    4   18 ar
    12    4   36 1
    13    5   19 ar
    14    5   37 1
    15    6   19 ar
    16    6   38 1
    17    7   20 ar
    18    7   39 1
    19    8   20 ar
    20    8   40 1
    21    9   13 ar
    22    9   21 ar
    23    9   41 1
    24   10   14 ar
    25   10   21 ar
    26   10   42 1
    27   11   15 ar
    28   11   22 ar
    29   11   43 1
    30   12   16 ar
    31   12   22 ar
    32   12   44 1
    33   13   23 ar
    34   13   45 1
    35   14   23 ar
    36   14   46 1
    37   15   24 ar
    38   15   47 1
    39   16   24 ar
    40   16   48 1
    41   17   18 1
    42   19   25 1
    43   20   26 1
    44   21   27 1
    45   22   28 1
    46   23   31 1
    47   24   32 1
    48   25   29 1
    49   26   30 1
    50   27   29 1
    51   28   30 1
