@<TRIPOS>MOLECULE
*****
   48    51     0     0     0
SMALL
NO_CHARGES

@<TRIPOS>ATOM
      1 C1          4.3891   -2.8881   -1.5994 C.ar      1 <0>         0.0000
      2 C2          6.0247   -2.5990    0.1519 C.ar      1 <0>         0.0000
      3 C3          3.6092   -2.4271    1.9752 C.ar      1 <0>         0.0000
      4 C4          2.6069   -1.1648    0.1784 C.ar      1 <0>         0.0000
      5 C5          5.3708   -3.4132   -2.4400 C.ar      1 <0>         0.0000
      6 C6          7.0154   -3.1174   -0.6803 C.ar      1 <0>         0.0000
      7 C7          2.6037   -2.0067    2.8448 C.ar      1 <0>         0.0000
      8 C8          1.5922   -0.7404    1.0379 C.ar      1 <0>         0.0000
      9 C9          5.8134   -6.3064   -0.3714 C.ar      1 <0>         0.0000
     10 C10         7.9085   -6.1986    0.8501 C.ar      1 <0>         0.0000
     11 C11        -2.2534   -1.3871    0.9029 C.ar      1 <0>         0.0000
     12 C12        -3.3630   -1.1528    3.0514 C.ar      1 <0>         0.0000
     13 C13         5.1126   -6.1113    0.8200 C.ar      1 <0>         0.0000
     14 C14         7.2090   -6.0197    2.0448 C.ar      1 <0>         0.0000
     15 C15        -3.2698   -0.6469    0.2932 C.ar      1 <0>         0.0000
     16 C16        -4.3759   -0.4063    2.4467 C.ar      1 <0>         0.0000
     17 C17         4.6925   -2.4952   -0.2838 C.ar      1 <0>         0.0000
     18 C18         3.6288   -2.0166    0.6300 C.ar      1 <0>         0.0000
     19 C19         6.6731   -3.5479   -1.9609 C.ar      1 <0>         0.0000
     20 C20         1.6000   -1.1642    2.3664 C.ar      1 <0>         0.0000
     21 C21         7.2088   -6.3257   -0.3510 C.ar      1 <0>         0.0000
     22 C22        -2.3104   -1.6376    2.2737 C.ar      1 <0>         0.0000
     23 C23         5.8146   -5.9636    2.0176 C.ar      1 <0>         0.0000
     24 C24        -4.3212   -0.1601    1.0720 C.ar      1 <0>         0.0000
     25 O1          7.6703   -4.1615   -2.7399 O.3       1 <0>         0.0000
     26 O2          0.5869   -0.6611    3.1955 O.3       1 <0>         0.0000
     27 O3          8.0110   -6.4559   -1.4949 O.3       1 <0>         0.0000
     28 O4         -1.2999   -2.4389    2.8171 O.3       1 <0>         0.0000
     29 S1          7.4652   -5.8208   -2.9548 S.3       1 <0>         0.0000
     30 S2         -0.3529   -1.7686    4.0384 S.3       1 <0>         0.0000
     31 Cl1         4.9306   -5.6969    3.5149 Cl        1 <0>         0.0000
     32 Cl2        -5.5981    0.7769    0.3127 Cl        1 <0>         0.0000
     33 H1          3.3645   -2.8240   -1.9554 H         1 <0>         0.0000
     34 H2          6.2889   -2.2766    1.1548 H         1 <0>         0.0000
     35 H3          4.3713   -3.1071    2.3425 H         1 <0>         0.0000
     36 H4          2.6145   -0.8124   -0.8494 H         1 <0>         0.0000
     37 H5          5.1250   -3.7532   -3.4419 H         1 <0>         0.0000
     38 H6          8.0390   -3.2284   -0.3373 H         1 <0>         0.0000
     39 H7          2.5878   -2.3445    3.8766 H         1 <0>         0.0000
     40 H8          0.8043   -0.0736    0.7004 H         1 <0>         0.0000
     41 H9          5.2750   -6.3947   -1.3082 H         1 <0>         0.0000
     42 H10         8.9938   -6.2190    0.8354 H         1 <0>         0.0000
     43 H11        -1.4203   -1.7782    0.3271 H         1 <0>         0.0000
     44 H12        -3.3882   -1.3524    4.1183 H         1 <0>         0.0000
     45 H13         4.0285   -6.0647    0.8134 H         1 <0>         0.0000
     46 H14         7.7432   -5.9097    2.9831 H         1 <0>         0.0000
     47 H15        -3.2420   -0.4457   -0.7729 H         1 <0>         0.0000
     48 H16        -5.2036   -0.0239    3.0354 H         1 <0>         0.0000
@<TRIPOS>BOND
     1    1    5 ar
     2    1   17 ar
     3    1   33 1
     4    2    6 ar
     5    2   17 ar
     6    2   34 1
     7    3    7 ar
     8    3   18 ar
     9    3   35 1
    10    4    8 ar
    11    4   18 ar
    12    4   36 1
    13    5   19 ar
    14    5   37 1
    15    6   19 ar
    16    6   38 1
    17    7   20 ar
    18    7   39 1
    19    8   20 ar
    20    8   40 1
    21    9   13 ar
    22    9   21 ar
    23    9   41 1
    24   10   14 ar
    25   10   21 ar
    26   10   42 1
    27   11   15 ar
    28   11   22 ar
    29   11   43 1
    30   12   16 ar
    31   12   22 ar
    32   12   44 1
    33   13   23 ar
    34   13   45 1
    35   14   23 ar
    36   14   46 1
    37   15   24 ar
    38   15   47 1
    39   16   24 ar
    40   16   48 1
    41   17   18 1
    42   19   25 1
    43   20   26 1
    44   21   27 1
    45   22   28 1
    46   23   31 1
    47   24   32 1
    48   25   29 1
    49   26   30 1
    50   27   29 1
    51   28   30 1
