@<TRIPOS>MOLECULE
*****
   19    19     0     0     0
SMALL
NO_CHARGES

@<TRIPOS>ATOM
      1 C1          3.5741   -1.9994   -2.5552 C.ar      1 <0>         0.0000
      2 C2          5.6254   -3.0499   -1.8197 C.ar      1 <0>         0.0000
      3 C3          4.0196   -2.0466   -3.8777 C.ar      1 <0>         0.0000
      4 C4          6.0774   -3.1004   -3.1399 C.ar      1 <0>         0.0000
      5 C5          4.3679   -2.5075   -1.5165 C.ar      1 <0>         0.0000
      6 C6          5.2690   -2.6000   -4.1617 C.ar      1 <0>         0.0000
      7 C7          3.2708   -3.3308    0.3670 C.2       1 <0>         0.0000
      8 C8          2.1494   -5.4067    0.5328 C.3       1 <0>         0.0000
      9 N1          3.9409   -2.3982   -0.1694 N.2       1 <0>         0.0000
     10 O1          2.9070   -4.4780   -0.2583 O.3       1 <0>         0.0000
     11 Cl1         5.8354   -2.6603   -5.8277 Cl        1 <0>         0.0000
     12 H1          2.6067   -1.5635   -2.3226 H         1 <0>         0.0000
     13 H2          6.2502   -3.4294   -1.0162 H         1 <0>         0.0000
     14 H3          3.4018   -1.6552   -4.6801 H         1 <0>         0.0000
     15 H4          7.0498   -3.5234   -3.3721 H         1 <0>         0.0000
     16 H5          2.9457   -3.2377    1.4070 H         1 <0>         0.0000
     17 H6          1.9411   -6.2559   -0.1177 H         1 <0>         0.0000
     18 H7          1.2053   -4.9607    0.8640 H         1 <0>         0.0000
     19 H8          2.7268   -5.7446    1.4003 H         1 <0>         0.0000
@<TRIPOS>BOND
     1    1    3 ar
     2    1    5 ar
     3    1   12 1
     4    2    4 ar
     5    2    5 ar
     6    2   13 1
     7    3    6 ar
     8    3   14 1
     9    4    6 ar
    10    4   15 1
    11    5    9 1
    12    6   11 1
    13    7    9 2
    14    7   10 1
    15    7   16 1
    16    8   10 1
    17    8   17 1
    18    8   18 1
    19    8   19 1
