@<TRIPOS>MOLECULE
*****
   21    22     0     0     0
SMALL
NO_CHARGES

@<TRIPOS>ATOM
      1 C1          0.7177   -0.6178    2.1579 C.ar      1 <0>         0.0000
      2 C2          0.4307   -1.0097    0.8605 C.ar      1 <0>         0.0000
      3 C3          4.0124   -1.9140    2.8204 C.2       1 <0>         0.0000
      4 C4          2.9026   -1.7457    1.9273 C.ar      1 <0>         0.0000
      5 C5          2.5892   -2.1620    0.6049 C.ar      1 <0>         0.0000
      6 C6          1.9623   -0.9978    2.6815 C.ar      1 <0>         0.0000
      7 C7          1.3465   -1.7764    0.0991 C.ar      1 <0>         0.0000
      8 C8          3.5509   -3.0133   -0.1612 C.2       1 <0>         0.0000
      9 C9          5.8325   -3.5155   -0.5057 C.3       1 <0>         0.0000
     10 N1          3.7826   -1.3356    3.9901 N.2       1 <0>         0.0000
     11 N2          2.5434   -0.7825    3.9026 N.pl3     1 <0>         0.0000
     12 O1          3.2505   -3.8801   -0.9568 O.2       1 <0>         0.0000
     13 O2          4.8345   -2.7145    0.1619 O.3       1 <0>         0.0000
     14 Br1         0.7835   -2.1824   -1.6873 Br        1 <0>         0.0000
     15 H1          0.0020   -0.0378    2.7339 H         1 <0>         0.0000
     16 H2         -0.5143   -0.7291    0.4085 H         1 <0>         0.0000
     17 H3          4.9502   -2.4185    2.6412 H         1 <0>         0.0000
     18 H4          6.7904   -3.1510   -0.1351 H         1 <0>         0.0000
     19 H5          5.7620   -3.3840   -1.5877 H         1 <0>         0.0000
     20 H6          5.6983   -4.5720   -0.2624 H         1 <0>         0.0000
     21 H7          2.1698   -0.2856    4.6990 H         1 <0>         0.0000
@<TRIPOS>BOND
     1    1    2 ar
     2    1    6 ar
     3    1   15 1
     4    2    7 ar
     5    2   16 1
     6    3    4 1
     7    3   10 2
     8    3   17 1
     9    4    5 ar
    10    4    6 ar
    11    5    7 ar
    12    5    8 1
    13    6   11 1
    14    7   14 1
    15    8   12 2
    16    8   13 1
    17    9   13 1
    18    9   18 1
    19    9   19 1
    20    9   20 1
    21   10   11 1
    22   11   21 1
