@<TRIPOS>MOLECULE
*****
   35    37     0     0     0
SMALL
NO_CHARGES

@<TRIPOS>ATOM
      1 C1         -3.5882   -0.9304   -2.4555 C.ar      1 <0>         0.0000
      2 C2          0.2699    2.0538   -0.5707 C.ar      1 <0>         0.0000
      3 C3         -4.5817   -1.5539   -3.2089 C.ar      1 <0>         0.0000
      4 C4          1.2766    2.7131    0.1289 C.ar      1 <0>         0.0000
      5 C5         -3.1788   -2.9761   -1.2506 C.ar      1 <0>         0.0000
      6 C6          2.0055    0.5777    1.0137 C.ar      1 <0>         0.0000
      7 C7         -2.8579   -1.6225   -1.4694 C.ar      1 <0>         0.0000
      8 C8          0.0862    0.6628   -0.4745 C.ar      1 <0>         0.0000
      9 C9          0.9936   -0.0875    0.3123 C.ar      1 <0>         0.0000
     10 C10         2.1429    1.9685    0.9373 C.ar      1 <0>         0.0000
     11 C11        -4.8841   -2.9024   -2.9984 C.ar      1 <0>         0.0000
     12 C12        -4.1649   -3.5796   -2.0108 C.ar      1 <0>         0.0000
     13 C13        -1.0163    0.0102   -1.2000 C.2       1 <0>         0.0000
     14 C14        -1.7863   -0.9747   -0.6800 C.2       1 <0>         0.0000
     15 C15         0.9266   -1.5996    0.3129 C.3       1 <0>         0.0000
     16 C16        -1.5836   -1.3955    0.7661 C.3       1 <0>         0.0000
     17 C17        -0.2949   -2.1928    1.0416 C.3       1 <0>         0.0000
     18 O1          3.1222    2.6523    1.6184 O.3       1 <0>         0.0000
     19 O2         -5.8610   -3.5137   -3.7351 O.3       1 <0>         0.0000
     20 F1         -4.4732   -4.9009   -1.8137 F         1 <0>         0.0000
     21 H1         -3.3963    0.1256   -2.6174 H         1 <0>         0.0000
     22 H2         -0.4068    2.6327   -1.1953 H         1 <0>         0.0000
     23 H3         -5.1467   -1.0061   -3.9574 H         1 <0>         0.0000
     24 H4          1.4053    3.7893    0.0621 H         1 <0>         0.0000
     25 H5         -2.6539   -3.5740   -0.5125 H         1 <0>         0.0000
     26 H6          2.7093   -0.0016    1.6116 H         1 <0>         0.0000
     27 H7         -1.2053    0.3576   -2.2146 H         1 <0>         0.0000
     28 H8          0.8916   -1.9301   -0.7315 H         1 <0>         0.0000
     29 H9          1.8442   -2.0129    0.7440 H         1 <0>         0.0000
     30 H10        -1.5384   -0.4778    1.3637 H         1 <0>         0.0000
     31 H11        -2.4503   -1.9552    1.1281 H         1 <0>         0.0000
     32 H12        -0.4091   -3.2387    0.7305 H         1 <0>         0.0000
     33 H13        -0.1234   -2.2018    2.1249 H         1 <0>         0.0000
     34 H14         3.6517    2.0198    2.1293 H         1 <0>         0.0000
     35 H15        -5.9312   -4.4385   -3.4431 H         1 <0>         0.0000
@<TRIPOS>BOND
     1    1    3 ar
     2    1    7 ar
     3    1   21 1
     4    2    4 ar
     5    2    8 ar
     6    2   22 1
     7    3   11 ar
     8    3   23 1
     9    4   10 ar
    10    4   24 1
    11    5    7 ar
    12    5   12 ar
    13    5   25 1
    14    6    9 ar
    15    6   10 ar
    16    6   26 1
    17    7   14 1
    18    8    9 ar
    19    8   13 1
    20    9   15 1
    21   10   18 1
    22   11   12 ar
    23   11   19 1
    24   12   20 1
    25   13   14 2
    26   13   27 1
    27   14   16 1
    28   15   17 1
    29   15   28 1
    30   15   29 1
    31   16   17 1
    32   16   30 1
    33   16   31 1
    34   17   32 1
    35   17   33 1
    36   18   34 1
    37   19   35 1
