@<TRIPOS>MOLECULE
*****
   32    34     0     0     0
SMALL
NO_CHARGES

@<TRIPOS>ATOM
      1 C1          7.5952   -4.3686    4.3338 C.1       1 <0>         0.0000
      2 C2          1.3493   -1.5472   -0.0411 C.ar      1 <0>         0.0000
      3 C3          0.8450   -0.3642    0.5069 C.ar      1 <0>         0.0000
      4 C4          2.3971   -2.2042    0.5995 C.ar      1 <0>         0.0000
      5 C5          1.3885    0.1403    1.6901 C.ar      1 <0>         0.0000
      6 C6          8.9283    0.1811    5.2119 C.2       1 <0>         0.0000
      7 C7          8.7607    1.5303    5.1101 C.2       1 <0>         0.0000
      8 C8          6.9347    0.2645    3.9885 C.2       1 <0>         0.0000
      9 C9          2.9538   -1.6911    1.7852 C.ar      1 <0>         0.0000
     10 C10         7.8773   -0.5774    4.5672 C.2       1 <0>         0.0000
     11 C11         2.4444   -0.5019    2.3536 C.ar      1 <0>         0.0000
     12 C12         4.0582   -2.4501    2.3988 C.2       1 <0>         0.0000
     13 C13         5.8667   -2.9260    3.3847 C.2       1 <0>         0.0000
     14 C14         7.9322   -2.0199    4.5850 C.2       1 <0>         0.0000
     15 C15         7.1313   -3.0243    4.1020 C.2       1 <0>         0.0000
     16 C16         2.9675    0.0933    3.6415 C.3       1 <0>         0.0000
     17 N1          7.9994   -5.4421    4.5383 N.1       1 <0>         0.0000
     18 N2          5.1336   -1.8883    3.0639 N.2       1 <0>         0.0000
     19 N3          4.1185   -3.7661    2.3187 N.2       1 <0>         0.0000
     20 O1          5.3185   -4.0890    2.9655 O.3       1 <0>         0.0000
     21 S1          7.3164    1.9189    4.2216 S.3       1 <0>         0.0000
     22 H1          0.9330   -1.9523   -0.9592 H         1 <0>         0.0000
     23 H2          0.0282    0.1616    0.0192 H         1 <0>         0.0000
     24 H3          2.8038   -3.1214    0.1851 H         1 <0>         0.0000
     25 H4          0.9796    1.0523    2.1185 H         1 <0>         0.0000
     26 H5          9.7669   -0.2787    5.7255 H         1 <0>         0.0000
     27 H6          9.3921    2.3186    5.4988 H         1 <0>         0.0000
     28 H7          6.0499   -0.0383    3.4488 H         1 <0>         0.0000
     29 H8          8.8168   -2.3961    5.0943 H         1 <0>         0.0000
     30 H9          3.2041   -0.6694    4.3863 H         1 <0>         0.0000
     31 H10         3.8850    0.6652    3.4696 H         1 <0>         0.0000
     32 H11         2.2284    0.7755    4.0697 H         1 <0>         0.0000
@<TRIPOS>BOND
     1    1   15 1
     2    1   17 3
     3    2    3 ar
     4    2    4 ar
     5    2   22 1
     6    3    5 ar
     7    3   23 1
     8    4    9 ar
     9    4   24 1
    10    5   11 ar
    11    5   25 1
    12    6    7 2
    13    6   10 1
    14    6   26 1
    15    7   21 1
    16    7   27 1
    17    8   10 2
    18    8   21 1
    19    8   28 1
    20    9   11 ar
    21    9   12 1
    22   10   14 1
    23   11   16 1
    24   12   18 1
    25   12   19 2
    26   13   15 1
    27   13   18 2
    28   13   20 1
    29   14   15 2
    30   14   29 1
    31   16   30 1
    32   16   31 1
    33   16   32 1
    34   19   20 1
