@<TRIPOS>MOLECULE
*****
   26    28     0     0     0
SMALL
NO_CHARGES

@<TRIPOS>ATOM
      1 C1         -2.1520    0.3488   -0.4000 C.ar      1 <0>         0.0000
      2 C2         -0.7992    0.3641   -0.0716 C.ar      1 <0>         0.0000
      3 C3         -0.7069    2.8167   -0.2053 C.ar      1 <0>         0.0000
      4 C4         -3.0328    3.8618   -0.7699 C.2       1 <0>         0.0000
      5 C5         -2.0763    2.8117   -0.5259 C.ar      1 <0>         0.0000
      6 C6         -2.7717    1.5790   -0.6400 C.ar      1 <0>         0.0000
      7 C7         -0.1093    1.5871    0.0131 C.ar      1 <0>         0.0000
      8 C8         -4.2353    3.2556   -1.0281 C.2       1 <0>         0.0000
      9 C9         -5.5315    3.8409   -1.4568 C.3       1 <0>         0.0000
     10 C10        -5.2098    0.9951   -0.6553 C.3       1 <0>         0.0000
     11 C11        -6.5147    1.5471   -1.2176 C.3       1 <0>         0.0000
     12 N1         -4.0947    1.8602   -1.0056 N.pl3     1 <0>         0.0000
     13 N2         -6.6602    3.0116   -0.8435 N.4       1 <0>         0.0000
     14 F1          1.2030    1.5465    0.3293 F         1 <0>         0.0000
     15 H1         -2.6841   -0.5949   -0.4751 H         1 <0>         0.0000
     16 H2         -0.2568   -0.5566    0.1175 H         1 <0>         0.0000
     17 H3         -0.1294    3.7317   -0.1205 H         1 <0>         0.0000
     18 H4         -2.8360    4.9265   -0.7963 H         1 <0>         0.0000
     19 H5         -5.6455    4.8739   -1.1261 H         1 <0>         0.0000
     20 H6         -5.6996    3.7880   -2.5383 H         1 <0>         0.0000
     21 H7         -5.2861    0.8770    0.4360 H         1 <0>         0.0000
     22 H8         -5.0624   -0.0007   -1.0823 H         1 <0>         0.0000
     23 H9         -6.5367    1.5118   -2.3087 H         1 <0>         0.0000
     24 H10        -7.3752    1.0089   -0.8170 H         1 <0>         0.0000
     25 H11        -6.6347    3.1121    0.1797 H         1 <0>         0.0000
     26 H12        -7.5716    3.3646   -1.1589 H         1 <0>         0.0000
@<TRIPOS>BOND
     1    1    2 ar
     2    1    6 ar
     3    1   15 1
     4    2    7 ar
     5    2   16 1
     6    3    5 ar
     7    3    7 ar
     8    3   17 1
     9    4    5 1
    10    4    8 2
    11    4   18 1
    12    5    6 ar
    13    6   12 1
    14    7   14 1
    15    8    9 1
    16    8   12 1
    17    9   13 1
    18    9   19 1
    19    9   20 1
    20   10   11 1
    21   10   12 1
    22   10   21 1
    23   10   22 1
    24   11   13 1
    25   11   23 1
    26   11   24 1
    27   13   25 1
    28   13   26 1
