@<TRIPOS>MOLECULE
*****
   48    51     0     0     0
SMALL
NO_CHARGES

@<TRIPOS>ATOM
      1 C1          4.9414   -1.7417   -1.5973 C.ar      1 <0>         0.0000
      2 C2          5.0219   -3.4420    0.1140 C.ar      1 <0>         0.0000
      3 C3          3.3081   -1.5256    1.7516 C.ar      1 <0>         0.0000
      4 C4          2.3011   -1.0069   -0.3806 C.ar      1 <0>         0.0000
      5 C5          5.8752   -2.4490   -2.3521 C.ar      1 <0>         0.0000
      6 C6          5.9592   -4.1577   -0.6308 C.ar      1 <0>         0.0000
      7 C7          2.2210   -0.9538    2.4131 C.ar      1 <0>         0.0000
      8 C8          1.2058   -0.4397    0.2683 C.ar      1 <0>         0.0000
      9 C9          3.6794   -3.5568   -5.0396 C.ar      1 <0>         0.0000
     10 C10         3.4741   -4.8545   -2.9993 C.ar      1 <0>         0.0000
     11 C11        -2.0303   -1.9675   -0.2330 C.ar      1 <0>         0.0000
     12 C12        -3.4518   -0.7263    1.2977 C.ar      1 <0>         0.0000
     13 C13         2.4844   -2.8973   -4.7473 C.ar      1 <0>         0.0000
     14 C14         2.2870   -4.1840   -2.6969 C.ar      1 <0>         0.0000
     15 C15        -2.8709   -1.6306   -1.2958 C.ar      1 <0>         0.0000
     16 C16        -4.2887   -0.3803    0.2341 C.ar      1 <0>         0.0000
     17 C17         4.4704   -2.2425   -0.3715 C.ar      1 <0>         0.0000
     18 C18         3.3635   -1.5700    0.3467 C.ar      1 <0>         0.0000
     19 C19         6.3472   -3.6716   -1.8787 C.ar      1 <0>         0.0000
     20 C20         1.1729   -0.4213    1.6613 C.ar      1 <0>         0.0000
     21 C21         4.1732   -4.5235   -4.1607 C.ar      1 <0>         0.0000
     22 C22        -2.3299   -1.5186    1.0538 C.ar      1 <0>         0.0000
     23 C23         1.8012   -3.2112   -3.5710 C.ar      1 <0>         0.0000
     24 C24        -3.9931   -0.8359   -1.0532 C.ar      1 <0>         0.0000
     25 O1          7.1719   -4.4289   -2.7280 O.3       1 <0>         0.0000
     26 O2          0.0526    0.1724    2.2595 O.3       1 <0>         0.0000
     27 O3          5.3926   -5.1009   -4.5482 O.3       1 <0>         0.0000
     28 O4         -1.4647   -1.9513    2.0673 O.3       1 <0>         0.0000
     29 S1          6.4086   -5.7794   -3.3923 S.3       1 <0>         0.0000
     30 S2         -0.9193   -0.8338    3.1988 S.3       1 <0>         0.0000
     31 Cl1         0.3076   -2.3612   -3.1852 Cl        1 <0>         0.0000
     32 Cl2        -5.0475   -0.3973   -2.3881 Cl        1 <0>         0.0000
     33 H1          4.5587   -0.7989   -1.9762 H         1 <0>         0.0000
     34 H2          4.6715   -3.8512    1.0574 H         1 <0>         0.0000
     35 H3          4.1329   -1.9247    2.3356 H         1 <0>         0.0000
     36 H4          2.3022   -1.0578   -1.4640 H         1 <0>         0.0000
     37 H5          6.2058   -2.0909   -3.3219 H         1 <0>         0.0000
     38 H6          6.3441   -5.1102   -0.2780 H         1 <0>         0.0000
     39 H7          2.1789   -0.9265    3.4979 H         1 <0>         0.0000
     40 H8          0.3678   -0.0341   -0.2896 H         1 <0>         0.0000
     41 H9          4.2427   -3.3195   -5.9368 H         1 <0>         0.0000
     42 H10         3.8641   -5.5973   -2.3135 H         1 <0>         0.0000
     43 H11        -1.1427   -2.5704   -0.3944 H         1 <0>         0.0000
     44 H12        -3.6650   -0.3729    2.3015 H         1 <0>         0.0000
     45 H13         2.0957   -2.1411   -5.4218 H         1 <0>         0.0000
     46 H14         1.7508   -4.4143   -1.7821 H         1 <0>         0.0000
     47 H15        -2.6515   -1.9776   -2.3004 H         1 <0>         0.0000
     48 H16        -5.1661    0.2351    0.4053 H         1 <0>         0.0000
@<TRIPOS>BOND
     1    1    5 ar
     2    1   17 ar
     3    1   33 1
     4    2    6 ar
     5    2   17 ar
     6    2   34 1
     7    3    7 ar
     8    3   18 ar
     9    3   35 1
    10    4    8 ar
    11    4   18 ar
    12    4   36 1
    13    5   19 ar
    14    5   37 1
    15    6   19 ar
    16    6   38 1
    17    7   20 ar
    18    7   39 1
    19    8   20 ar
    20    8   40 1
    21    9   13 ar
    22    9   21 ar
    23    9   41 1
    24   10   14 ar
    25   10   21 ar
    26   10   42 1
    27   11   15 ar
    28   11   22 ar
    29   11   43 1
    30   12   16 ar
    31   12   22 ar
    32   12   44 1
    33   13   23 ar
    34   13   45 1
    35   14   23 ar
    36   14   46 1
    37   15   24 ar
    38   15   47 1
    39   16   24 ar
    40   16   48 1
    41   17   18 1
    42   19   25 1
    43   20   26 1
    44   21   27 1
    45   22   28 1
    46   23   31 1
    47   24   32 1
    48   25   29 1
    49   26   30 1
    50   27   29 1
    51   28   30 1
