@<TRIPOS>MOLECULE
*****
   59    62     0     0     0
SMALL
NO_CHARGES

@<TRIPOS>ATOM
      1 C1          1.0625    1.9395    0.5100 C.ar      1 <0>         0.0000
      2 C2          0.5106    3.2570   -1.4381 C.ar      1 <0>         0.0000
      3 C3         -1.2974    0.2179   -0.2706 C.ar      1 <0>         0.0000
      4 C4          2.2952    2.5779    0.5956 C.ar      1 <0>         0.0000
      5 C5          1.7418    3.9022   -1.3560 C.ar      1 <0>         0.0000
      6 C6         -2.5276   -0.4216   -0.3621 C.ar      1 <0>         0.0000
      7 C7         -5.7588   -8.3616   -1.4629 C.ar      1 <0>         0.0000
      8 C8         -4.8725   -6.6228   -0.0196 C.ar      1 <0>         0.0000
      9 C9         -4.8223   -9.2651   -0.9655 C.ar      1 <0>         0.0000
     10 C10        -3.9299   -7.5301    0.4826 C.ar      1 <0>         0.0000
     11 C11        -2.3159    2.2701   -1.0068 C.ar      1 <0>         0.0000
     12 C12         0.1449    2.2643   -0.5088 C.ar      1 <0>         0.0000
     13 C13        -1.1644    1.5813   -0.5982 C.ar      1 <0>         0.0000
     14 C14         2.6466    3.5662   -0.3369 C.ar      1 <0>         0.0000
     15 C15        -3.5670    1.6530   -1.0997 C.ar      1 <0>         0.0000
     16 C16        -3.6623    0.2882   -0.7792 C.ar      1 <0>         0.0000
     17 C17        -5.7893   -7.0391   -0.9937 C.ar      1 <0>         0.0000
     18 C18        -3.9195   -8.8323    0.0039 C.ar      1 <0>         0.0000
     19 C19         3.9709    4.2189   -0.2068 C.2       1 <0>         0.0000
     20 C20        -4.8027    2.4271   -1.5074 C.3       1 <0>         0.0000
     21 C21        -6.0735    1.6674   -1.1158 C.3       1 <0>         0.0000
     22 C22        -5.9389    0.1999   -1.5168 C.3       1 <0>         0.0000
     23 C23        -7.1816   -0.6208   -1.1985 C.3       1 <0>         0.0000
     24 C24        -8.2493   -2.8066   -1.4010 C.3       1 <0>         0.0000
     25 C25        -6.8476   -4.8763   -1.0804 C.3       1 <0>         0.0000
     26 C26        -8.0159   -4.2527   -1.8315 C.3       1 <0>         0.0000
     27 N1         -7.0880   -1.9786   -1.7276 N.3       1 <0>         0.0000
     28 O1          4.7964    3.9680    0.6555 O.2       1 <0>         0.0000
     29 O2         -4.8371   -0.4145   -0.8239 O.3       1 <0>         0.0000
     30 O3          4.2044    5.1607   -1.1666 O.3       1 <0>         0.0000
     31 O4         -9.2254   -4.9664   -1.5812 O.3       1 <0>         0.0000
     32 O5         -6.7470   -6.2283   -1.5490 O.3       1 <0>         0.0000
     33 F1         -3.0034   -9.7134    0.4917 F         1 <0>         0.0000
     34 H1          0.7926    1.1988    1.2572 H         1 <0>         0.0000
     35 H2         -0.1660    3.5029   -2.2515 H         1 <0>         0.0000
     36 H3         -0.4232   -0.3549    0.0255 H         1 <0>         0.0000
     37 H4          2.9974    2.3318    1.3861 H         1 <0>         0.0000
     38 H5          2.0122    4.6580   -2.0858 H         1 <0>         0.0000
     39 H6         -2.6325   -1.4770   -0.1280 H         1 <0>         0.0000
     40 H7         -6.4757   -8.6649   -2.2201 H         1 <0>         0.0000
     41 H8         -4.8750   -5.6058    0.3542 H         1 <0>         0.0000
     42 H9         -4.7856  -10.2912   -1.3183 H         1 <0>         0.0000
     43 H10        -3.2108   -7.2272    1.2376 H         1 <0>         0.0000
     44 H11        -2.2506    3.3344   -1.2234 H         1 <0>         0.0000
     45 H12        -4.7907    3.4196   -1.0449 H         1 <0>         0.0000
     46 H13        -4.7950    2.5901   -2.5932 H         1 <0>         0.0000
     47 H14        -6.2329    1.7214   -0.0325 H         1 <0>         0.0000
     48 H15        -6.9503    2.1056   -1.6031 H         1 <0>         0.0000
     49 H16        -5.7279    0.1414   -2.5971 H         1 <0>         0.0000
     50 H17        -8.0625   -0.0712   -1.5779 H         1 <0>         0.0000
     51 H18        -7.2845   -0.6816   -0.1093 H         1 <0>         0.0000
     52 H19        -9.1893   -2.4566   -1.8599 H         1 <0>         0.0000
     53 H20        -8.3991   -2.7822   -0.3156 H         1 <0>         0.0000
     54 H21        -7.0523   -4.8703   -0.0018 H         1 <0>         0.0000
     55 H22        -5.9261   -4.3214   -1.2813 H         1 <0>         0.0000
     56 H23        -7.7818   -4.2807   -2.9085 H         1 <0>         0.0000
     57 H24        -6.9870   -1.9318   -2.7410 H         1 <0>         0.0000
     58 H25         5.0950    5.5121   -0.9777 H         1 <0>         0.0000
     59 H26        -9.0270   -5.9082   -1.7165 H         1 <0>         0.0000
@<TRIPOS>BOND
     1    1    4 ar
     2    1   12 ar
     3    1   34 1
     4    2    5 ar
     5    2   12 ar
     6    2   35 1
     7    3    6 ar
     8    3   13 ar
     9    3   36 1
    10    4   14 ar
    11    4   37 1
    12    5   14 ar
    13    5   38 1
    14    6   16 ar
    15    6   39 1
    16    7    9 ar
    17    7   17 ar
    18    7   40 1
    19    8   10 ar
    20    8   17 ar
    21    8   41 1
    22    9   18 ar
    23    9   42 1
    24   10   18 ar
    25   10   43 1
    26   11   13 ar
    27   11   15 ar
    28   11   44 1
    29   12   13 1
    30   14   19 1
    31   15   16 ar
    32   15   20 1
    33   16   29 1
    34   17   32 1
    35   18   33 1
    36   19   28 2
    37   19   30 1
    38   20   21 1
    39   20   45 1
    40   20   46 1
    41   21   22 1
    42   21   47 1
    43   21   48 1
    44   22   23 1
    45   22   29 1
    46   22   49 1
    47   23   27 1
    48   23   50 1
    49   23   51 1
    50   24   26 1
    51   24   27 1
    52   24   52 1
    53   24   53 1
    54   25   26 1
    55   25   32 1
    56   25   54 1
    57   25   55 1
    58   26   31 1
    59   26   56 1
    60   27   57 1
    61   30   58 1
    62   31   59 1
