@<TRIPOS>MOLECULE
*****
   33    33     0     0     0
SMALL
NO_CHARGES

@<TRIPOS>ATOM
      1 C1         -1.8358    0.9336    5.4782 C.ar      1 <0>         0.0000
      2 C2         -0.8692    0.9075    6.4964 C.ar      1 <0>         0.0000
      3 C3         -0.6092   -0.7499    4.2735 C.ar      1 <0>         0.0000
      4 C4         -1.7197    0.1116    4.3597 C.ar      1 <0>         0.0000
      5 C5          0.2308    0.0550    6.4085 C.ar      1 <0>         0.0000
      6 C6          0.3593   -0.7883    5.2755 C.ar      1 <0>         0.0000
      7 C7         -0.7950    2.1537    0.4407 C.3       1 <0>         0.0000
      8 C8          1.1248    0.7774    8.4968 C.3       1 <0>         0.0000
      9 C9          1.6193   -2.4704    4.1501 C.3       1 <0>         0.0000
     10 C10        -2.7239    0.1680    3.2297 C.3       1 <0>         0.0000
     11 C11        -2.4026    1.2498    2.1783 C.3       1 <0>         0.0000
     12 C12        -1.0448    1.0816    1.5010 C.3       1 <0>         0.0000
     13 O1         -1.0260   -0.2381    0.9174 O.3       1 <0>         0.0000
     14 O2          1.2242   -0.0481    7.3447 O.3       1 <0>         0.0000
     15 O3          1.4627   -1.5974    5.2608 O.3       1 <0>         0.0000
     16 H1         -2.6869    1.6045    5.5720 H         1 <0>         0.0000
     17 H2         -0.9904    1.5549    7.3578 H         1 <0>         0.0000
     18 H3         -0.5166   -1.3792    3.3954 H         1 <0>         0.0000
     19 H4         -1.5572    2.1036   -0.3442 H         1 <0>         0.0000
     20 H5         -0.8179    3.1541    0.8864 H         1 <0>         0.0000
     21 H6          0.1888    2.0244   -0.0276 H         1 <0>         0.0000
     22 H7          2.0000    0.5459    9.1060 H         1 <0>         0.0000
     23 H8          0.2152    0.5594    9.0713 H         1 <0>         0.0000
     24 H9          1.1391    1.8427    8.2317 H         1 <0>         0.0000
     25 H10         2.5429   -3.0219    4.3326 H         1 <0>         0.0000
     26 H11         1.7089   -1.9126    3.2089 H         1 <0>         0.0000
     27 H12         0.7826   -3.1761    4.0719 H         1 <0>         0.0000
     28 H13        -2.7734   -0.8019    2.7272 H         1 <0>         0.0000
     29 H14        -3.7217    0.3708    3.6351 H         1 <0>         0.0000
     30 H15        -2.4245    2.2385    2.6521 H         1 <0>         0.0000
     31 H16        -3.1820    1.2402    1.4057 H         1 <0>         0.0000
     32 H17        -0.2591    1.1427    2.2673 H         1 <0>         0.0000
     33 H18        -0.1886   -0.3375    0.4383 H         1 <0>         0.0000
@<TRIPOS>BOND
     1    1    2 ar
     2    1    4 ar
     3    1   16 1
     4    2    5 ar
     5    2   17 1
     6    3    4 ar
     7    3    6 ar
     8    3   18 1
     9    4   10 1
    10    5    6 ar
    11    5   14 1
    12    6   15 1
    13    7   12 1
    14    7   19 1
    15    7   20 1
    16    7   21 1
    17    8   14 1
    18    8   22 1
    19    8   23 1
    20    8   24 1
    21    9   15 1
    22    9   25 1
    23    9   26 1
    24    9   27 1
    25   10   11 1
    26   10   28 1
    27   10   29 1
    28   11   12 1
    29   11   30 1
    30   11   31 1
    31   12   13 1
    32   12   32 1
    33   13   33 1
