@<TRIPOS>MOLECULE
*****
   48    51     0     0     0
SMALL
NO_CHARGES

@<TRIPOS>ATOM
      1 C1          4.7288   -3.0237   -0.8414 C.ar      1 <0>         0.0000
      2 C2          6.1515   -1.7363    0.6286 C.ar      1 <0>         0.0000
      3 C3          3.3977   -1.4771    2.1498 C.ar      1 <0>         0.0000
      4 C4          2.7180   -0.8288   -0.0772 C.ar      1 <0>         0.0000
      5 C5          5.8511   -3.5865   -1.4453 C.ar      1 <0>         0.0000
      6 C6          7.2836   -2.2721    0.0098 C.ar      1 <0>         0.0000
      7 C7          2.2087   -0.9587    2.6687 C.ar      1 <0>         0.0000
      8 C8          1.5427   -0.2821    0.4335 C.ar      1 <0>         0.0000
      9 C9          6.3561   -0.8657   -3.3999 C.ar      1 <0>         0.0000
     10 C10         5.5889   -2.7263   -4.7577 C.ar      1 <0>         0.0000
     11 C11        -0.9791   -1.9901   -1.1500 C.ar      1 <0>         0.0000
     12 C12         0.0329   -3.3097    0.6189 C.ar      1 <0>         0.0000
     13 C13         5.0494   -0.3771   -3.3403 C.ar      1 <0>         0.0000
     14 C14         4.2833   -2.2361   -4.7055 C.ar      1 <0>         0.0000
     15 C15        -0.1821   -2.6343   -2.0973 C.ar      1 <0>         0.0000
     16 C16         0.8365   -3.9506   -0.3262 C.ar      1 <0>         0.0000
     17 C17         4.8628   -2.0797    0.1898 C.ar      1 <0>         0.0000
     18 C18         3.6519   -1.4482    0.7693 C.ar      1 <0>         0.0000
     19 C19         7.1195   -3.1747   -1.0402 C.ar      1 <0>         0.0000
     20 C20         1.2808   -0.3882    1.7983 C.ar      1 <0>         0.0000
     21 C21         6.6124   -2.0509   -4.0901 C.ar      1 <0>         0.0000
     22 C22        -0.8538   -2.3164    0.2017 C.ar      1 <0>         0.0000
     23 C23         4.0230   -1.0699   -3.9850 C.ar      1 <0>         0.0000
     24 C24         0.7295   -3.6021   -1.6739 C.ar      1 <0>         0.0000
     25 O1          8.2337   -3.6638   -1.7469 O.3       1 <0>         0.0000
     26 O2          0.0338    0.0602    2.2719 O.3       1 <0>         0.0000
     27 O3          7.8750   -2.6579   -4.1613 O.3       1 <0>         0.0000
     28 O4         -1.6612   -1.5713    1.0738 O.3       1 <0>         0.0000
     29 S1          8.9047   -2.5617   -2.8316 S.3       1 <0>         0.0000
     30 S2         -1.0675   -1.1731    2.5993 S.3       1 <0>         0.0000
     31 Cl1         2.3722   -0.4700   -3.8786 Cl        1 <0>         0.0000
     32 Cl2         1.7685   -4.3872   -2.8573 Cl        1 <0>         0.0000
     33 H1          3.7404   -3.3094   -1.1849 H         1 <0>         0.0000
     34 H2          6.2695   -1.0098    1.4283 H         1 <0>         0.0000
     35 H3          4.1137   -1.9502    2.8168 H         1 <0>         0.0000
     36 H4          2.9038   -0.7871   -1.1450 H         1 <0>         0.0000
     37 H5          5.7531   -4.3015   -2.2550 H         1 <0>         0.0000
     38 H6          8.2828   -1.9725    0.3128 H         1 <0>         0.0000
     39 H7          1.9852   -1.0226    3.7298 H         1 <0>         0.0000
     40 H8          0.8094    0.1801   -0.2185 H         1 <0>         0.0000
     41 H9          7.1527   -0.3520   -2.8732 H         1 <0>         0.0000
     42 H10         5.8190   -3.6467   -5.2856 H         1 <0>         0.0000
     43 H11        -1.6771   -1.2122   -1.4439 H         1 <0>         0.0000
     44 H12         0.1346   -3.5505    1.6713 H         1 <0>         0.0000
     45 H13         4.8331    0.5316   -2.7879 H         1 <0>         0.0000
     46 H14         3.4757   -2.7657   -5.1994 H         1 <0>         0.0000
     47 H15        -0.2528   -2.3716   -3.1474 H         1 <0>         0.0000
     48 H16         1.5463   -4.7090   -0.0120 H         1 <0>         0.0000
@<TRIPOS>BOND
     1    1    5 ar
     2    1   17 ar
     3    1   33 1
     4    2    6 ar
     5    2   17 ar
     6    2   34 1
     7    3    7 ar
     8    3   18 ar
     9    3   35 1
    10    4    8 ar
    11    4   18 ar
    12    4   36 1
    13    5   19 ar
    14    5   37 1
    15    6   19 ar
    16    6   38 1
    17    7   20 ar
    18    7   39 1
    19    8   20 ar
    20    8   40 1
    21    9   13 ar
    22    9   21 ar
    23    9   41 1
    24   10   14 ar
    25   10   21 ar
    26   10   42 1
    27   11   15 ar
    28   11   22 ar
    29   11   43 1
    30   12   16 ar
    31   12   22 ar
    32   12   44 1
    33   13   23 ar
    34   13   45 1
    35   14   23 ar
    36   14   46 1
    37   15   24 ar
    38   15   47 1
    39   16   24 ar
    40   16   48 1
    41   17   18 1
    42   19   25 1
    43   20   26 1
    44   21   27 1
    45   22   28 1
    46   23   31 1
    47   24   32 1
    48   25   29 1
    49   26   30 1
    50   27   29 1
    51   28   30 1
