@<TRIPOS>MOLECULE
*****
   16    17     0     0     0
SMALL
NO_CHARGES

@<TRIPOS>ATOM
      1 C1          0.3296   -1.0395    1.4443 C.2       1 <0>         0.0000
      2 C2          3.0980   -5.6680    3.1452 C.2       1 <0>         0.0000
      3 C3         -0.8554   -0.9805    0.7437 C.2       1 <0>         0.0000
      4 C4          2.7326   -6.9821    2.9500 C.2       1 <0>         0.0000
      5 C5         -0.0371   -3.2058    1.2598 C.2       1 <0>         0.0000
      6 C6          1.2247   -5.3169    2.0356 C.2       1 <0>         0.0000
      7 C7          0.0760   -4.6810    1.3485 C.2       1 <0>         0.0000
      8 N1          0.7808   -2.2967    1.7294 N.2       1 <0>         0.0000
      9 N2          2.2415   -4.7393    2.6261 N.2       1 <0>         0.0000
     10 O1         -0.7976   -5.3884    0.8438 O.2       1 <0>         0.0000
     11 S1         -1.4454   -2.5626    0.4186 S.3       1 <0>         0.0000
     12 S2          1.2529   -7.0780    2.0793 S.3       1 <0>         0.0000
     13 H1          0.9034   -0.1785    1.7704 H         1 <0>         0.0000
     14 H2          3.9911   -5.3405    3.6666 H         1 <0>         0.0000
     15 H3         -1.3902   -0.0984    0.4148 H         1 <0>         0.0000
     16 H4          3.2572   -7.8725    3.2730 H         1 <0>         0.0000
@<TRIPOS>BOND
     1    1    3 2
     2    1    8 1
     3    1   13 1
     4    2    4 2
     5    2    9 1
     6    2   14 1
     7    3   11 1
     8    3   15 1
     9    4   12 1
    10    4   16 1
    11    5    7 1
    12    5    8 2
    13    5   11 1
    14    6    7 1
    15    6    9 2
    16    6   12 1
    17    7   10 2
