@<TRIPOS>MOLECULE
*****
   27    27     0     0     0
SMALL
NO_CHARGES

@<TRIPOS>ATOM
      1 C1          1.8197   -0.3803   -0.1750 C.ar      1 <0>         0.0000
      2 C2          0.9031    0.2366    0.6731 C.ar      1 <0>         0.0000
      3 C3          2.9091   -1.3805    1.7325 C.ar      1 <0>         0.0000
      4 C4          2.8361   -1.1975    0.3381 C.ar      1 <0>         0.0000
      5 C5          2.0088   -0.7781    2.6075 C.ar      1 <0>         0.0000
      6 C6          0.9948    0.0403    2.0601 C.ar      1 <0>         0.0000
      7 C7          3.7933   -1.8357   -0.6107 C.2       1 <0>         0.0000
      8 C8          2.0880   -0.9741    4.1005 C.3       1 <0>         0.0000
      9 C9          4.8932   -2.7243   -0.0510 C.3       1 <0>         0.0000
     10 C10        -1.6908    1.9240    3.7101 C.3       1 <0>         0.0000
     11 C11        -0.9131    1.4459    2.4965 C.3       1 <0>         0.0000
     12 O1          3.7030   -1.6526   -1.8222 O.2       1 <0>         0.0000
     13 O2          0.1457    0.6010    2.9686 O.3       1 <0>         0.0000
     14 H1          1.7620   -0.2381   -1.2497 H         1 <0>         0.0000
     15 H2          0.1263    0.8637    0.2510 H         1 <0>         0.0000
     16 H3          3.6871   -2.0089    2.1568 H         1 <0>         0.0000
     17 H4          2.2272   -0.0188    4.6177 H         1 <0>         0.0000
     18 H5          1.1628   -1.4104    4.4915 H         1 <0>         0.0000
     19 H6          2.9195   -1.6337    4.3624 H         1 <0>         0.0000
     20 H7          4.4711   -3.5649    0.5103 H         1 <0>         0.0000
     21 H8          5.5387   -2.1640    0.6341 H         1 <0>         0.0000
     22 H9          5.4920   -3.1072   -0.8782 H         1 <0>         0.0000
     23 H10        -2.1120    1.0760    4.2578 H         1 <0>         0.0000
     24 H11        -1.0423    2.4870    4.3875 H         1 <0>         0.0000
     25 H12        -2.5115    2.5753    3.3932 H         1 <0>         0.0000
     26 H13        -0.4875    2.2931    1.9437 H         1 <0>         0.0000
     27 H14        -1.5589    0.8783    1.8144 H         1 <0>         0.0000
@<TRIPOS>BOND
     1    1    2 ar
     2    1    4 ar
     3    1   14 1
     4    2    6 ar
     5    2   15 1
     6    3    4 ar
     7    3    5 ar
     8    3   16 1
     9    4    7 1
    10    5    6 ar
    11    5    8 1
    12    6   13 1
    13    7    9 1
    14    7   12 2
    15    8   17 1
    16    8   18 1
    17    8   19 1
    18    9   20 1
    19    9   21 1
    20    9   22 1
    21   10   11 1
    22   10   23 1
    23   10   24 1
    24   10   25 1
    25   11   13 1
    26   11   26 1
    27   11   27 1
