@<TRIPOS>MOLECULE
*****
   41    41     0     0     0
SMALL
NO_CHARGES

@<TRIPOS>ATOM
      1 C1         -0.3171   -5.0986   -4.0840 C.3       1 <0>         0.0000
      2 C2         -0.3166   -5.0737   -2.5303 C.3       1 <0>         0.0000
      3 C3          1.1639   -4.9108   -4.4722 C.3       1 <0>         0.0000
      4 C4          1.1646   -4.8878   -2.1371 C.3       1 <0>         0.0000
      5 C5          1.3928   -4.0803   -0.8589 C.3       1 <0>         0.0000
      6 C6          0.7443   -4.6751    0.4003 C.3       1 <0>         0.0000
      7 C7          1.3841  -10.3075    4.0576 C.3       1 <0>         0.0000
      8 C8          0.7875   -8.9117    3.8375 C.3       1 <0>         0.0000
      9 C9          0.8646  -10.9371    5.3549 C.3       1 <0>         0.0000
     10 C10         1.2957   -6.0595    0.7508 C.3       1 <0>         0.0000
     11 C11         1.3151   -8.2815    2.5485 C.3       1 <0>         0.0000
     12 C12         1.4089  -12.3270    5.5972 C.3       1 <0>         0.0000
     13 N1          1.7204   -4.2000   -3.3125 N.3       1 <0>         0.0000
     14 O1         -0.8855   -6.8398    2.0873 O.2       1 <0>         0.0000
     15 O2          1.0258   -5.7648    3.3993 O.2       1 <0>         0.0000
     16 F1          0.9412  -12.8482    6.7588 F         1 <0>         0.0000
     17 F2          2.7660  -12.3392    5.6738 F         1 <0>         0.0000
     18 F3          1.0629  -13.1908    4.6062 F         1 <0>         0.0000
     19 S1          0.5601   -6.6419    2.3081 S.o2      1 <0>         0.0000
     20 H1         -0.7238   -6.0289   -4.4895 H         1 <0>         0.0000
     21 H2         -0.9209   -4.2769   -4.4773 H         1 <0>         0.0000
     22 H3         -0.9072   -4.2300   -2.1600 H         1 <0>         0.0000
     23 H4         -0.7392   -5.9828   -2.0936 H         1 <0>         0.0000
     24 H5          1.6376   -5.8963   -4.6290 H         1 <0>         0.0000
     25 H6          1.2952   -4.3242   -5.3867 H         1 <0>         0.0000
     26 H7          1.6206   -5.8904   -2.0223 H         1 <0>         0.0000
     27 H8          2.4719   -3.9594   -0.6911 H         1 <0>         0.0000
     28 H9          0.9886   -3.0751   -1.0217 H         1 <0>         0.0000
     29 H10        -0.3393   -4.7463    0.2700 H         1 <0>         0.0000
     30 H11         0.9222   -4.0030    1.2453 H         1 <0>         0.0000
     31 H12         2.4770  -10.2441    4.0970 H         1 <0>         0.0000
     32 H13         1.1313  -10.9563    3.2118 H         1 <0>         0.0000
     33 H14        -0.3041   -8.9757    3.7840 H         1 <0>         0.0000
     34 H15         1.0336   -8.2595    4.6817 H         1 <0>         0.0000
     35 H16         1.1384  -10.3282    6.2217 H         1 <0>         0.0000
     36 H17        -0.2264  -11.0182    5.3405 H         1 <0>         0.0000
     37 H18         1.0470   -6.8094   -0.0041 H         1 <0>         0.0000
     38 H19         2.3792   -6.0370    0.9041 H         1 <0>         0.0000
     39 H20         2.3981   -8.1304    2.5845 H         1 <0>         0.0000
     40 H21         1.0560   -8.8798    1.6699 H         1 <0>         0.0000
     41 H22         2.7384   -4.2226   -3.3105 H         1 <0>         0.0000
@<TRIPOS>BOND
     1    1    2 1
     2    1    3 1
     3    1   20 1
     4    1   21 1
     5    2    4 1
     6    2   22 1
     7    2   23 1
     8    3   13 1
     9    3   24 1
    10    3   25 1
    11    4    5 1
    12    4   13 1
    13    4   26 1
    14    5    6 1
    15    5   27 1
    16    5   28 1
    17    6   10 1
    18    6   29 1
    19    6   30 1
    20    7    8 1
    21    7    9 1
    22    7   31 1
    23    7   32 1
    24    8   11 1
    25    8   33 1
    26    8   34 1
    27    9   12 1
    28    9   35 1
    29    9   36 1
    30   10   19 1
    31   10   37 1
    32   10   38 1
    33   11   19 1
    34   11   39 1
    35   11   40 1
    36   12   16 1
    37   12   17 1
    38   12   18 1
    39   13   41 1
    40   14   19 2
    41   15   19 2
