@<TRIPOS>MOLECULE
*****
   25    26     0     0     0
SMALL
NO_CHARGES

@<TRIPOS>ATOM
      1 C1         -3.2639    1.4561   -2.8608 C.ar      1 <0>         0.0000
      2 C2         -4.6107    1.2622   -3.1957 C.ar      1 <0>         0.0000
      3 C3         -4.3929   -1.1031   -2.6965 C.ar      1 <0>         0.0000
      4 C4         -2.4670    0.3847   -2.4414 C.ar      1 <0>         0.0000
      5 C5         -3.0637   -0.8873   -2.3704 C.ar      1 <0>         0.0000
      6 C6         -5.1632   -0.0113   -3.1111 C.ar      1 <0>         0.0000
      7 C7          2.3609    3.1336   -0.8581 C.3       1 <0>         0.0000
      8 C8          1.5182    2.5546    0.2727 C.3       1 <0>         0.0000
      9 C9          0.9188    1.5485   -1.7026 C.3       1 <0>         0.0000
     10 C10        -0.5248    1.7355   -2.1524 C.3       1 <0>         0.0000
     11 O1          1.6165    2.7503   -2.0222 O.3       1 <0>         0.0000
     12 O2          1.0369    1.3342   -0.3024 O.3       1 <0>         0.0000
     13 O3         -1.1545    0.4584   -2.0941 O.3       1 <0>         0.0000
     14 F1         -2.3071   -1.9325   -1.9708 F         1 <0>         0.0000
     15 Br1        -7.0043   -0.2867   -3.5672 Br        1 <0>         0.0000
     16 H1         -2.8465    2.4537   -2.9332 H         1 <0>         0.0000
     17 H2         -5.2140    2.1036   -3.5189 H         1 <0>         0.0000
     18 H3         -4.8037   -2.1043   -2.6243 H         1 <0>         0.0000
     19 H4          2.4389    4.2229   -0.8476 H         1 <0>         0.0000
     20 H5          3.3637    2.6881   -0.8820 H         1 <0>         0.0000
     21 H6          2.0843    2.3052    1.1724 H         1 <0>         0.0000
     22 H7          0.6847    3.2204    0.5351 H         1 <0>         0.0000
     23 H8          1.3654    0.6814   -2.2050 H         1 <0>         0.0000
     24 H9         -0.5314    2.1249   -3.1780 H         1 <0>         0.0000
     25 H10        -1.0257    2.4509   -1.4887 H         1 <0>         0.0000
@<TRIPOS>BOND
     1    1    2 ar
     2    1    4 ar
     3    1   16 1
     4    2    6 ar
     5    2   17 1
     6    3    5 ar
     7    3    6 ar
     8    3   18 1
     9    4    5 ar
    10    4   13 1
    11    5   14 1
    12    6   15 1
    13    7    8 1
    14    7   11 1
    15    7   19 1
    16    7   20 1
    17    8   12 1
    18    8   21 1
    19    8   22 1
    20    9   10 1
    21    9   12 1
    22    9   11 1
    23    9   23 1
    24   10   13 1
    25   10   24 1
    26   10   25 1
