@<TRIPOS>MOLECULE
*****
   16    17     0     0     0
SMALL
NO_CHARGES

@<TRIPOS>ATOM
      1 C1          0.3229   -1.0755    1.5075 C.2       1 <0>         0.0000
      2 C2          2.5146   -6.9615    2.6972 C.2       1 <0>         0.0000
      3 C3         -0.8716   -0.9741    0.8318 C.2       1 <0>         0.0000
      4 C4          3.2811   -5.9065    3.1394 C.2       1 <0>         0.0000
      5 C5         -0.0959   -3.2313    1.2518 C.2       1 <0>         0.0000
      6 C6          1.2247   -5.3117    1.9818 C.2       1 <0>         0.0000
      7 C7          0.0339   -4.7105    1.3129 C.2       1 <0>         0.0000
      8 N1          0.7494   -2.3552    1.7381 N.2       1 <0>         0.0000
      9 N2          1.3656   -6.6169    2.0504 N.2       1 <0>         0.0000
     10 O1         -0.8379   -5.4116    0.8141 O.2       1 <0>         0.0000
     11 S1         -1.4966   -2.5371    0.4640 S.3       1 <0>         0.0000
     12 S2          2.5386   -4.4097    2.7329 S.3       1 <0>         0.0000
     13 H1          0.9201   -0.2388    1.8529 H         1 <0>         0.0000
     14 H2          2.7607   -8.0100    2.8274 H         1 <0>         0.0000
     15 H3         -1.3971   -0.0731    0.5420 H         1 <0>         0.0000
     16 H4          4.2235   -5.9428    3.6720 H         1 <0>         0.0000
@<TRIPOS>BOND
     1    1    3 2
     2    1    8 1
     3    1   13 1
     4    2    4 2
     5    2    9 1
     6    2   14 1
     7    3   11 1
     8    3   15 1
     9    4   12 1
    10    4   16 1
    11    5    7 1
    12    5    8 2
    13    5   11 1
    14    6    7 1
    15    6    9 2
    16    6   12 1
    17    7   10 2
