@<TRIPOS>MOLECULE
*****
   25    26     0     0     0
SMALL
NO_CHARGES

@<TRIPOS>ATOM
      1 C1          1.8903    0.2780   -1.0104 C.ar      1 <0>         0.0000
      2 C2          0.7887    0.0284   -1.8332 C.ar      1 <0>         0.0000
      3 C3          2.3353    1.6001   -0.8032 C.ar      1 <0>         0.0000
      4 C4          0.2028    1.1558   -2.4019 C.ar      1 <0>         0.0000
      5 C5          0.7202    2.4575   -2.1327 C.ar      1 <0>         0.0000
      6 C6         -0.9554    2.7321   -3.4396 C.2       1 <0>         0.0000
      7 C7         -1.9993    3.2976   -4.3527 C.3       1 <0>         0.0000
      8 C8         -4.8182    1.3303   -5.6900 C.3       1 <0>         0.0000
      9 C9         -3.8733    2.5096   -5.6021 C.3       1 <0>         0.0000
     10 N1          1.7756    2.6887   -1.3440 N.ar      1 <0>         0.0000
     11 N2         -0.0356    3.4167   -2.7985 N.2       1 <0>         0.0000
     12 N3         -0.8672    1.3698   -3.2522 N.pl3     1 <0>         0.0000
     13 O1         -4.0536    0.1619   -5.9993 O.3       1 <0>         0.0000
     14 O2         -3.0346    2.3318   -4.4685 O.3       1 <0>         0.0000
     15 H1          2.4126   -0.5415   -0.5255 H         1 <0>         0.0000
     16 H2          0.4234   -0.9796   -2.0125 H         1 <0>         0.0000
     17 H3          3.1958    1.7774   -0.1599 H         1 <0>         0.0000
     18 H4         -2.3683    4.2492   -3.9485 H         1 <0>         0.0000
     19 H5         -1.5491    3.5000   -5.3367 H         1 <0>         0.0000
     20 H6         -5.5600    1.5386   -6.4749 H         1 <0>         0.0000
     21 H7         -5.3454    1.2178   -4.7324 H         1 <0>         0.0000
     22 H8         -4.4558    3.4391   -5.5110 H         1 <0>         0.0000
     23 H9         -3.2677    2.5664   -6.5187 H         1 <0>         0.0000
     24 H10        -1.5316    0.7070   -3.6345 H         1 <0>         0.0000
     25 H11        -4.6557   -0.5970   -6.0291 H         1 <0>         0.0000
@<TRIPOS>BOND
     1    1    2 ar
     2    1    3 ar
     3    1   15 1
     4    2    4 ar
     5    2   16 1
     6    3   10 ar
     7    3   17 1
     8    4    5 ar
     9    4   12 1
    10    5   10 ar
    11    5   11 1
    12    6    7 1
    13    6   11 2
    14    6   12 1
    15    7   14 1
    16    7   18 1
    17    7   19 1
    18    8    9 1
    19    8   13 1
    20    8   20 1
    21    8   21 1
    22    9   14 1
    23    9   22 1
    24    9   23 1
    25   12   24 1
    26   13   25 1
