@<TRIPOS>MOLECULE
*****
   25    26     0     0     0
SMALL
NO_CHARGES

@<TRIPOS>ATOM
      1 C1         -2.9020   -2.8018   -1.1192 C.ar      1 <0>         0.0000
      2 C2         -3.3236   -2.0354   -0.0257 C.ar      1 <0>         0.0000
      3 C3         -2.1275   -0.1121   -0.9430 C.ar      1 <0>         0.0000
      4 C4         -1.7201   -0.8761   -2.0438 C.ar      1 <0>         0.0000
      5 C5         -2.1178   -2.2236   -2.1042 C.ar      1 <0>         0.0000
      6 C6         -2.9258   -0.7029    0.0400 C.ar      1 <0>         0.0000
      7 C7          1.5429    0.6063   -0.8479 C.3       1 <0>         0.0000
      8 C8          1.9763   -0.1280   -2.1181 C.3       1 <0>         0.0000
      9 C9          0.5090    1.5196   -2.7175 C.3       1 <0>         0.0000
     10 C10        -0.7811    0.9605   -3.3208 C.3       1 <0>         0.0000
     11 O1          0.4701    1.4514   -1.2950 O.3       1 <0>         0.0000
     12 O2          1.6578    0.8179   -3.1500 O.3       1 <0>         0.0000
     13 O3         -0.9448   -0.4395   -3.0767 O.3       1 <0>         0.0000
     14 F1         -1.7175   -2.9692   -3.1602 F         1 <0>         0.0000
     15 Br1        -3.4693    0.3638    1.5414 Br        1 <0>         0.0000
     16 H1         -3.1847   -3.8455   -1.2169 H         1 <0>         0.0000
     17 H2         -3.9404   -2.4731    0.7511 H         1 <0>         0.0000
     18 H3         -1.7890    0.9091   -0.8317 H         1 <0>         0.0000
     19 H4          1.1591   -0.0606   -0.0715 H         1 <0>         0.0000
     20 H5          2.3474    1.2280   -0.4382 H         1 <0>         0.0000
     21 H6          3.0493   -0.3242   -2.1637 H         1 <0>         0.0000
     22 H7          1.4178   -1.0576   -2.2669 H         1 <0>         0.0000
     23 H8          0.6181    2.5655   -3.0366 H         1 <0>         0.0000
     24 H9         -0.7213    1.0609   -4.4080 H         1 <0>         0.0000
     25 H10        -1.6438    1.5323   -2.9619 H         1 <0>         0.0000
@<TRIPOS>BOND
     1    1    2 ar
     2    1    5 ar
     3    1   16 1
     4    2    6 ar
     5    2   17 1
     6    3    4 ar
     7    3    6 ar
     8    3   18 1
     9    4    5 ar
    10    4   13 1
    11    5   14 1
    12    6   15 1
    13    7    8 1
    14    7   11 1
    15    7   19 1
    16    7   20 1
    17    8   12 1
    18    8   21 1
    19    8   22 1
    20    9   10 1
    21    9   12 1
    22    9   11 1
    23    9   23 1
    24   10   13 1
    25   10   24 1
    26   10   25 1
