@<TRIPOS>MOLECULE
*****
   31    32     0     0     0
SMALL
NO_CHARGES

@<TRIPOS>ATOM
      1 C1         -4.3741   -6.5558    3.7176 C.1       1 <0>         0.0000
      2 C2         -2.0202   -6.4309    3.0159 C.ar      1 <0>         0.0000
      3 C3         -0.9224   -5.6515    2.6638 C.ar      1 <0>         0.0000
      4 C4         -1.0263   -0.3677    0.7173 C.2       1 <0>         0.0000
      5 C5         -2.2935   -3.7112    2.9706 C.ar      1 <0>         0.0000
      6 C6         -0.6318   -1.6833    0.6227 C.2       1 <0>         0.0000
      7 C7         -0.4044   -0.9424    2.6924 C.2       1 <0>         0.0000
      8 C8         -3.2166   -5.7742    3.3399 C.ar      1 <0>         0.0000
      9 C9         -1.0421   -4.2573    2.6445 C.ar      1 <0>         0.0000
     10 C10         3.2563   -3.1617    1.9216 C.3       1 <0>         0.0000
     11 C11         2.4919   -2.6274    3.1387 C.3       1 <0>         0.0000
     12 C12         1.1930   -3.3878    3.4445 C.3       1 <0>         0.0000
     13 C13         0.1640   -3.3980    2.2956 C.3       1 <0>         0.0000
     14 N1         -5.2788   -7.2247    4.0169 N.1       1 <0>         0.0000
     15 N2         -0.8794    0.0848    2.0129 N.2       1 <0>         0.0000
     16 N3         -3.3600   -4.4399    3.3153 N.ar      1 <0>         0.0000
     17 N4         -0.2209   -2.0466    1.8949 N.pl3     1 <0>         0.0000
     18 H1         -1.9665   -7.5145    3.0396 H         1 <0>         0.0000
     19 H2          0.0197   -6.1278    2.4007 H         1 <0>         0.0000
     20 H3         -1.3994    0.2760   -0.0688 H         1 <0>         0.0000
     21 H4         -2.4474   -2.6353    2.9447 H         1 <0>         0.0000
     22 H5         -0.6052   -2.3806   -0.2031 H         1 <0>         0.0000
     23 H6         -0.1721   -0.9399    3.7485 H         1 <0>         0.0000
     24 H7          3.4453   -4.2385    2.0091 H         1 <0>         0.0000
     25 H8          2.7103   -2.9880    0.9885 H         1 <0>         0.0000
     26 H9          4.2250   -2.6622    1.8236 H         1 <0>         0.0000
     27 H10         2.2777   -1.5636    2.9952 H         1 <0>         0.0000
     28 H11         3.1306   -2.6957    4.0270 H         1 <0>         0.0000
     29 H12         0.7200   -2.9874    4.3480 H         1 <0>         0.0000
     30 H13         1.4292   -4.4335    3.6710 H         1 <0>         0.0000
     31 H14         0.6443   -3.8484    1.4214 H         1 <0>         0.0000
@<TRIPOS>BOND
     1    1    8 1
     2    1   14 3
     3    2    3 ar
     4    2    8 ar
     5    2   18 1
     6    3    9 ar
     7    3   19 1
     8    4    6 2
     9    4   15 1
    10    4   20 1
    11    5    9 ar
    12    5   16 ar
    13    5   21 1
    14    6   17 1
    15    6   22 1
    16    7   15 2
    17    7   17 1
    18    7   23 1
    19    8   16 ar
    20    9   13 1
    21   10   11 1
    22   10   24 1
    23   10   25 1
    24   10   26 1
    25   11   12 1
    26   11   27 1
    27   11   28 1
    28   12   13 1
    29   12   29 1
    30   12   30 1
    31   13   17 1
    32   13   31 1
