@<TRIPOS>MOLECULE
*****
   22    23     0     0     0
SMALL
NO_CHARGES

@<TRIPOS>ATOM
      1 C1          1.8259   -0.9165   -0.0434 C.ar      1 <0>         0.0000
      2 C2          2.8361   -1.5033    2.1002 C.ar      1 <0>         0.0000
      3 C3          0.7633   -0.3113    0.6310 C.ar      1 <0>         0.0000
      4 C4          1.7678   -0.8951    2.7624 C.ar      1 <0>         0.0000
      5 C5          0.2410    4.4723    3.5930 C.2       1 <0>         0.0000
      6 C6          2.8420   -1.4999    0.7082 C.ar      1 <0>         0.0000
      7 C7          0.7339   -0.2992    2.0305 C.ar      1 <0>         0.0000
      8 C8          1.3001    3.8844    2.9590 C.2       1 <0>         0.0000
      9 C9         -0.0307    2.1087    3.0639 C.2       1 <0>         0.0000
     10 C10         2.5852    4.5537    2.5700 C.3       1 <0>         0.0000
     11 N1          1.1295    2.5384    2.6651 N.2       1 <0>         0.0000
     12 F1          3.8767   -2.0896    0.0591 F         1 <0>         0.0000
     13 S1         -1.0418    3.3195    3.8465 S.3       1 <0>         0.0000
     14 S2         -0.6456    0.4535    2.8862 S.3       1 <0>         0.0000
     15 H1          1.8740   -0.9385   -1.1276 H         1 <0>         0.0000
     16 H2          3.6515   -1.9707    2.6435 H         1 <0>         0.0000
     17 H3         -0.0388    0.1587    0.0707 H         1 <0>         0.0000
     18 H4          1.7411   -0.8754    3.8473 H         1 <0>         0.0000
     19 H5          0.1368    5.4979    3.9223 H         1 <0>         0.0000
     20 H6          3.4352    4.0567    3.0491 H         1 <0>         0.0000
     21 H7          2.7371    4.4896    1.4874 H         1 <0>         0.0000
     22 H8          2.5858    5.6068    2.8616 H         1 <0>         0.0000
@<TRIPOS>BOND
     1    1    3 ar
     2    1    6 ar
     3    1   15 1
     4    2    4 ar
     5    2    6 ar
     6    2   16 1
     7    3    7 ar
     8    3   17 1
     9    4    7 ar
    10    4   18 1
    11    5    8 2
    12    5   13 1
    13    5   19 1
    14    6   12 1
    15    7   14 1
    16    8   10 1
    17    8   11 1
    18    9   11 2
    19    9   13 1
    20    9   14 1
    21   10   20 1
    22   10   21 1
    23   10   22 1
