@<TRIPOS>MOLECULE
*****
   15    15     0     0     0
SMALL
NO_CHARGES

@<TRIPOS>ATOM
      1 C1          1.8765   -1.0316   -0.1165 C.ar      1 <0>         0.0000
      2 C2          2.9315   -1.6357    0.5801 C.ar      1 <0>         0.0000
      3 C3          0.8054   -0.4628    0.5782 C.ar      1 <0>         0.0000
      4 C4          2.9184   -1.6730    1.9737 C.ar      1 <0>         0.0000
      5 C5          0.7810   -0.4940    1.9756 C.ar      1 <0>         0.0000
      6 C6          1.8406   -1.1005    2.6653 C.ar      1 <0>         0.0000
      7 O1          0.5419   -0.4601    5.0430 O.2       1 <0>         0.0000
      8 P1          1.7391   -1.1018    4.4619 P.3       1 <0>         0.0000
      9 Cl1         1.9757   -3.0837    5.0114 Cl        1 <0>         0.0000
     10 Cl2         3.5254   -0.2735    5.1011 Cl        1 <0>         0.0000
     11 H1          1.8921   -1.0055   -1.2028 H         1 <0>         0.0000
     12 H2          3.7625   -2.0769    0.0371 H         1 <0>         0.0000
     13 H3         -0.0116    0.0051    0.0362 H         1 <0>         0.0000
     14 H4          3.7359   -2.1413    2.5145 H         1 <0>         0.0000
     15 H5         -0.0439   -0.0566    2.5297 H         1 <0>         0.0000
@<TRIPOS>BOND
     1    1    3 ar
     2    1    2 ar
     3    1   11 1
     4    2    4 ar
     5    2   12 1
     6    3    5 ar
     7    3   13 1
     8    4    6 ar
     9    4   14 1
    10    5    6 ar
    11    5   15 1
    12    6    8 1
    13    7    8 2
    14    8    9 1
    15    8   10 1
