@<TRIPOS>MOLECULE
*****
   31    32     0     0     0
SMALL
NO_CHARGES

@<TRIPOS>ATOM
      1 C1         -4.5335   -6.5712    4.1331 C.1       1 <0>         0.0000
      2 C2         -3.0651   -5.5709    2.4299 C.ar      1 <0>         0.0000
      3 C3         -1.9273   -4.8308    2.1272 C.ar      1 <0>         0.0000
      4 C4         -0.3794   -0.2216    1.3708 C.2       1 <0>         0.0000
      5 C5         -1.5148   -4.6391    4.4756 C.ar      1 <0>         0.0000
      6 C6          0.2608   -1.4413    1.3616 C.2       1 <0>         0.0000
      7 C7         -1.2708   -1.3684    2.9543 C.2       1 <0>         0.0000
      8 C8         -3.3593   -5.8018    3.7826 C.ar      1 <0>         0.0000
      9 C9         -1.1181   -4.3482    3.1626 C.ar      1 <0>         0.0000
     10 C10         2.9356   -4.5769    5.3366 C.3       1 <0>         0.0000
     11 C11         1.8656   -4.7293    4.2502 C.3       1 <0>         0.0000
     12 C12         1.1684   -3.4013    3.9321 C.3       1 <0>         0.0000
     13 C13         0.1068   -3.5096    2.8264 C.3       1 <0>         0.0000
     14 N1         -5.4853   -7.1974    4.3719 N.1       1 <0>         0.0000
     15 N2         -1.3335   -0.1873    2.3670 N.2       1 <0>         0.0000
     16 N3         -2.6041   -5.3463    4.7938 N.ar      1 <0>         0.0000
     17 N4         -0.3235   -2.1777    2.3784 N.pl3     1 <0>         0.0000
     18 H1         -3.7154   -5.9616    1.6538 H         1 <0>         0.0000
     19 H2         -1.6718   -4.6188    1.0917 H         1 <0>         0.0000
     20 H3         -0.2134    0.6241    0.7157 H         1 <0>         0.0000
     21 H4         -0.9307   -4.2878    5.3220 H         1 <0>         0.0000
     22 H5          1.0513   -1.8478    0.7459 H         1 <0>         0.0000
     23 H6         -1.8901   -1.6973    3.7784 H         1 <0>         0.0000
     24 H7          3.7047   -3.8561    5.0373 H         1 <0>         0.0000
     25 H8          2.4967   -4.2227    6.2761 H         1 <0>         0.0000
     26 H9          3.4314   -5.5313    5.5397 H         1 <0>         0.0000
     27 H10         1.1320   -5.4802    4.5639 H         1 <0>         0.0000
     28 H11         2.3264   -5.1194    3.3330 H         1 <0>         0.0000
     29 H12         1.9131   -2.6737    3.5914 H         1 <0>         0.0000
     30 H13         0.7244   -2.9697    4.8364 H         1 <0>         0.0000
     31 H14         0.5822   -3.9732    1.9549 H         1 <0>         0.0000
@<TRIPOS>BOND
     1    1    8 1
     2    1   14 3
     3    2    3 ar
     4    2    8 ar
     5    2   18 1
     6    3    9 ar
     7    3   19 1
     8    4    6 2
     9    4   15 1
    10    4   20 1
    11    5    9 ar
    12    5   16 ar
    13    5   21 1
    14    6   17 1
    15    6   22 1
    16    7   15 2
    17    7   17 1
    18    7   23 1
    19    8   16 ar
    20    9   13 1
    21   10   11 1
    22   10   24 1
    23   10   25 1
    24   10   26 1
    25   11   12 1
    26   11   27 1
    27   11   28 1
    28   12   13 1
    29   12   29 1
    30   12   30 1
    31   13   17 1
    32   13   31 1
