@<TRIPOS>MOLECULE
*****
   31    32     0     0     0
SMALL
NO_CHARGES

@<TRIPOS>ATOM
      1 C1         -4.2298   -7.1326    3.8866 C.1       1 <0>         0.0000
      2 C2         -3.1935   -4.9008    3.8528 C.ar      1 <0>         0.0000
      3 C3         -2.1321   -4.0827    3.4756 C.ar      1 <0>         0.0000
      4 C4         -1.2804   -0.9319    0.7083 C.2       1 <0>         0.0000
      5 C5         -1.1238   -6.0058    2.4641 C.ar      1 <0>         0.0000
      6 C6         -0.9664   -2.2721    0.7147 C.2       1 <0>         0.0000
      7 C7         -0.2165   -1.2810    2.5424 C.2       1 <0>         0.0000
      8 C8         -3.1421   -6.2588    3.5038 C.ar      1 <0>         0.0000
      9 C9         -1.0594   -4.6392    2.7717 C.ar      1 <0>         0.0000
     10 C10         2.8604   -4.8786    5.0063 C.3       1 <0>         0.0000
     11 C11         1.8037   -5.0367    3.9077 C.3       1 <0>         0.0000
     12 C12         1.1726   -3.6948    3.5197 C.3       1 <0>         0.0000
     13 C13         0.1498   -3.8103    2.3737 C.3       1 <0>         0.0000
     14 N1         -5.1233   -7.8025    4.2158 N.1       1 <0>         0.0000
     15 N2         -0.8074   -0.3226    1.8526 N.2       1 <0>         0.0000
     16 N3         -2.1293   -6.8111    2.8156 N.ar      1 <0>         0.0000
     17 N4         -0.2713   -2.4914    1.8928 N.pl3     1 <0>         0.0000
     18 H1         -4.0472   -4.5093    4.3967 H         1 <0>         0.0000
     19 H2         -2.1454   -3.0217    3.7109 H         1 <0>         0.0000
     20 H3         -1.8107   -0.3743   -0.0529 H         1 <0>         0.0000
     21 H4         -0.3187   -6.4753    1.8996 H         1 <0>         0.0000
     22 H5         -1.1680   -3.0725    0.0165 H         1 <0>         0.0000
     23 H6          0.2750   -1.1505    3.4961 H         1 <0>         0.0000
     24 H7          3.6735   -4.2187    4.6842 H         1 <0>         0.0000
     25 H8          2.4235   -4.4504    5.9153 H         1 <0>         0.0000
     26 H9          3.2990   -5.8457    5.2713 H         1 <0>         0.0000
     27 H10         1.0269   -5.7300    4.2479 H         1 <0>         0.0000
     28 H11         2.2616   -5.4934    3.0208 H         1 <0>         0.0000
     29 H12         1.9602   -3.0008    3.2045 H         1 <0>         0.0000
     30 H13         0.6872   -3.2568    4.3998 H         1 <0>         0.0000
     31 H14         0.6461   -4.3109    1.5348 H         1 <0>         0.0000
@<TRIPOS>BOND
     1    1    8 1
     2    1   14 3
     3    2    3 ar
     4    2    8 ar
     5    2   18 1
     6    3    9 ar
     7    3   19 1
     8    4    6 2
     9    4   15 1
    10    4   20 1
    11    5    9 ar
    12    5   16 ar
    13    5   21 1
    14    6   17 1
    15    6   22 1
    16    7   15 2
    17    7   17 1
    18    7   23 1
    19    8   16 ar
    20    9   13 1
    21   10   11 1
    22   10   24 1
    23   10   25 1
    24   10   26 1
    25   11   12 1
    26   11   27 1
    27   11   28 1
    28   12   13 1
    29   12   29 1
    30   12   30 1
    31   13   17 1
    32   13   31 1
