@<TRIPOS>MOLECULE
*****
   42    43     0     0     0
SMALL
NO_CHARGES

@<TRIPOS>ATOM
      1 C1          5.6144    2.5562    6.6235 C.1       1 <0>         0.0000
      2 C2          6.0001    2.9662    7.7022 C.1       1 <0>         0.0000
      3 C3         -1.0171   -3.7506   -5.7853 C.ar      1 <0>         0.0000
      4 C4         -1.6744   -4.1544   -4.6144 C.ar      1 <0>         0.0000
      5 C5          0.0784   -2.8920   -5.6878 C.ar      1 <0>         0.0000
      6 C6          5.8249    2.4911    4.1628 C.ar      1 <0>         0.0000
      7 C7          4.0633    1.2295    5.2369 C.ar      1 <0>         0.0000
      8 C8         -1.2418   -3.7058   -3.3687 C.ar      1 <0>         0.0000
      9 C9          0.5258   -2.4320   -4.4418 C.ar      1 <0>         0.0000
     10 C10         5.3921    2.0427    2.9230 C.ar      1 <0>         0.0000
     11 C11         3.6200    0.7742    3.9936 C.ar      1 <0>         0.0000
     12 C12         5.1673    2.0916    5.3471 C.ar      1 <0>         0.0000
     13 C13        -0.1386   -2.8415   -3.2774 C.ar      1 <0>         0.0000
     14 C14         4.2859    1.1805    2.8275 C.ar      1 <0>         0.0000
     15 C15         6.4819    3.4066    9.0177 C.3       1 <0>         0.0000
     16 C16         1.4873   -1.3013   -0.3641 C.3       1 <0>         0.0000
     17 C17         2.6626   -0.3582   -0.0856 C.3       1 <0>         0.0000
     18 C18         1.3216   -1.5735   -1.8522 C.3       1 <0>         0.0000
     19 C19         2.8248   -0.0861    1.4024 C.3       1 <0>         0.0000
     20 O1          7.7070    2.7807    9.4203 O.3       1 <0>         0.0000
     21 O2          0.2098   -2.4557   -2.0089 O.3       1 <0>         0.0000
     22 O3          3.9396    0.7965    1.5638 O.3       1 <0>         0.0000
     23 H1         -1.3562   -4.1016   -6.7557 H         1 <0>         0.0000
     24 H2         -2.5296   -4.8230   -4.6729 H         1 <0>         0.0000
     25 H3          0.5986   -2.5702   -6.5866 H         1 <0>         0.0000
     26 H4          6.6800    3.1572    4.2310 H         1 <0>         0.0000
     27 H5          3.5460    0.9139    6.1383 H         1 <0>         0.0000
     28 H6         -1.7410   -4.0098   -2.4530 H         1 <0>         0.0000
     29 H7          1.3797   -1.7657   -4.3959 H         1 <0>         0.0000
     30 H8          5.8940    2.3456    2.0087 H         1 <0>         0.0000
     31 H9          2.7641    0.1109    3.9482 H         1 <0>         0.0000
     32 H10         6.6928    4.4797    9.0017 H         1 <0>         0.0000
     33 H11         5.6938    3.2357    9.7652 H         1 <0>         0.0000
     34 H12         1.6341   -2.2571    0.1523 H         1 <0>         0.0000
     35 H13         0.5541   -0.8721    0.0189 H         1 <0>         0.0000
     36 H14         2.5169    0.5973   -0.6029 H         1 <0>         0.0000
     37 H15         3.5961   -0.7883   -0.4668 H         1 <0>         0.0000
     38 H16         1.1380   -0.6376   -2.3980 H         1 <0>         0.0000
     39 H17         2.2292   -2.0363   -2.2640 H         1 <0>         0.0000
     40 H18         3.0080   -1.0208    1.9494 H         1 <0>         0.0000
     41 H19         1.9186    0.3799    1.8125 H         1 <0>         0.0000
     42 H20         7.6129    1.8270    9.2669 H         1 <0>         0.0000
@<TRIPOS>BOND
     1    1    2 3
     2    1   12 1
     3    2   15 1
     4    3    5 ar
     5    3    4 ar
     6    3   23 1
     7    4    8 ar
     8    4   24 1
     9    5    9 ar
    10    5   25 1
    11    6   10 ar
    12    6   12 ar
    13    6   26 1
    14    7   11 ar
    15    7   12 ar
    16    7   27 1
    17    8   13 ar
    18    8   28 1
    19    9   13 ar
    20    9   29 1
    21   10   14 ar
    22   10   30 1
    23   11   14 ar
    24   11   31 1
    25   13   21 1
    26   14   22 1
    27   15   20 1
    28   15   32 1
    29   15   33 1
    30   16   17 1
    31   16   18 1
    32   16   34 1
    33   16   35 1
    34   17   19 1
    35   17   36 1
    36   17   37 1
    37   18   21 1
    38   18   38 1
    39   18   39 1
    40   19   22 1
    41   19   40 1
    42   19   41 1
    43   20   42 1
