@<TRIPOS>MOLECULE
*****
   42    44     0     0     0
SMALL
NO_CHARGES

@<TRIPOS>ATOM
      1 C1          2.7710    0.3750   -1.9766 C.1       1 <0>         0.0000
      2 C2          2.3434   -0.4081   -1.1518 C.1       1 <0>         0.0000
      3 C3          3.9641    3.3054   -4.7922 C.ar      1 <0>         0.0000
      4 C4         -1.0570   -4.1581   -2.9925 C.ar      1 <0>         0.0000
      5 C5          4.4474    1.9964   -4.9061 C.ar      1 <0>         0.0000
      6 C6          3.0945    3.6405   -3.7478 C.ar      1 <0>         0.0000
      7 C7         -0.3783   -3.0384   -3.4832 C.ar      1 <0>         0.0000
      8 C8         -1.6523   -4.0995   -1.7284 C.ar      1 <0>         0.0000
      9 C9          4.0630    1.0249   -3.9819 C.ar      1 <0>         0.0000
     10 C10         2.7057    2.6784   -2.8150 C.ar      1 <0>         0.0000
     11 C11        -0.2912   -1.8716   -2.7182 C.ar      1 <0>         0.0000
     12 C12        -1.5640   -2.9302   -0.9685 C.ar      1 <0>         0.0000
     13 C13         3.1901    1.3583   -2.9281 C.ar      1 <0>         0.0000
     14 C14        -0.8810   -1.8009   -1.4469 C.ar      1 <0>         0.0000
     15 C15         0.0971    1.6491   -0.2320 C.2       1 <0>         0.0000
     16 C16        -0.6886    0.7997   -1.2216 C.3       1 <0>         0.0000
     17 C17        -0.7722   -0.5827   -0.5542 C.3       1 <0>         0.0000
     18 C18         0.4381   -0.5919    0.4345 C.3       1 <0>         0.0000
     19 C19         1.5016    1.3208    1.7658 C.3       1 <0>         0.0000
     20 C20         1.7323   -1.2435   -0.1131 C.3       1 <0>         0.0000
     21 N1          0.5979    0.8229    0.7400 N.am      1 <0>         0.0000
     22 O1          0.2692    2.8654   -0.2910 O.2       1 <0>         0.0000
     23 O2          2.5982   -1.4300    1.0225 O.3       1 <0>         0.0000
     24 H1          4.2642    4.0603   -5.5145 H         1 <0>         0.0000
     25 H2         -1.1255   -5.0636   -3.5897 H         1 <0>         0.0000
     26 H3          5.1226    1.7345   -5.7166 H         1 <0>         0.0000
     27 H4          2.7172    4.6557   -3.6578 H         1 <0>         0.0000
     28 H5          0.0858   -3.0710   -4.4657 H         1 <0>         0.0000
     29 H6         -2.1885   -4.9602   -1.3367 H         1 <0>         0.0000
     30 H7          4.4319    0.0065   -4.0653 H         1 <0>         0.0000
     31 H8          2.0300    2.9356   -2.0037 H         1 <0>         0.0000
     32 H9          0.2530   -1.0217   -3.1163 H         1 <0>         0.0000
     33 H10        -2.0345   -2.8918    0.0122 H         1 <0>         0.0000
     34 H11        -1.6676    1.2442   -1.4126 H         1 <0>         0.0000
     35 H12        -0.1398    0.7976   -2.1652 H         1 <0>         0.0000
     36 H13        -1.6568   -0.5731    0.0904 H         1 <0>         0.0000
     37 H14         0.1917   -1.1521    1.3435 H         1 <0>         0.0000
     38 H15         1.3912    0.7207    2.6721 H         1 <0>         0.0000
     39 H16         1.2396    2.3603    1.9699 H         1 <0>         0.0000
     40 H17         2.5454    1.2705    1.4406 H         1 <0>         0.0000
     41 H18         1.4692   -2.2218   -0.5340 H         1 <0>         0.0000
     42 H19         3.4764   -1.6722    0.6874 H         1 <0>         0.0000
@<TRIPOS>BOND
     1    1    2 3
     2    1   13 1
     3    2   20 1
     4    3    6 ar
     5    3    5 ar
     6    3   24 1
     7    4    8 ar
     8    4    7 ar
     9    4   25 1
    10    5    9 ar
    11    5   26 1
    12    6   10 ar
    13    6   27 1
    14    7   11 ar
    15    7   28 1
    16    8   12 ar
    17    8   29 1
    18    9   13 ar
    19    9   30 1
    20   10   13 ar
    21   10   31 1
    22   11   14 ar
    23   11   32 1
    24   12   14 ar
    25   12   33 1
    26   14   17 1
    27   15   16 1
    28   15   21 am
    29   15   22 2
    30   16   17 1
    31   16   34 1
    32   16   35 1
    33   17   18 1
    34   17   36 1
    35   18   20 1
    36   18   21 1
    37   18   37 1
    38   19   21 1
    39   19   38 1
    40   19   39 1
    41   19   40 1
    42   20   23 1
    43   20   41 1
    44   23   42 1
