@<TRIPOS>MOLECULE
*****
   23    23     0     0     0
SMALL
NO_CHARGES

@<TRIPOS>ATOM
      1 C1          2.0743   -1.0561    0.0577 C.ar      1 <0>         0.0000
      2 C2          0.8584   -0.7021    0.6371 C.ar      1 <0>         0.0000
      3 C3          1.7754   -1.1423    2.8447 C.ar      1 <0>         0.0000
      4 C4          3.1460   -1.4670    0.8617 C.ar      1 <0>         0.0000
      5 C5          0.7174   -0.7516    2.0248 C.ar      1 <0>         0.0000
      6 C6          2.9823   -1.5087    2.2577 C.ar      1 <0>         0.0000
      7 N1         -1.6854   -1.7613    2.8398 N.pl3     1 <0>         0.0000
      8 N2          5.5428   -0.9691    2.9731 N.pl3     1 <0>         0.0000
      9 O1         -0.5713    0.1418    4.1376 O.2       1 <0>         0.0000
     10 O2         -1.5661    0.5437    1.7975 O.2       1 <0>         0.0000
     11 O3          3.8982   -1.8030    4.7047 O.2       1 <0>         0.0000
     12 O4          4.7141   -3.4098    2.8907 O.2       1 <0>         0.0000
     13 O5          4.3588   -1.8076    0.3490 O.3       1 <0>         0.0000
     14 S1         -0.8455   -0.2883    2.7653 S.o2      1 <0>         0.0000
     15 S2          4.3125   -2.0731    3.3263 S.o2      1 <0>         0.0000
     16 H1          2.1975   -1.0055   -1.0222 H         1 <0>         0.0000
     17 H2          0.0296   -0.3681    0.0212 H         1 <0>         0.0000
     18 H3          1.6789   -1.1491    3.9259 H         1 <0>         0.0000
     19 H4         -1.7958   -2.0472    3.8121 H         1 <0>         0.0000
     20 H5         -2.5905   -1.6515    2.3838 H         1 <0>         0.0000
     21 H6          5.9369   -0.6239    3.8479 H         1 <0>         0.0000
     22 H7          6.2488   -1.4055    2.3825 H         1 <0>         0.0000
     23 H8          4.3326   -1.7544   -0.6201 H         1 <0>         0.0000
@<TRIPOS>BOND
     1    1    2 ar
     2    1    4 ar
     3    1   16 1
     4    2    5 ar
     5    2   17 1
     6    3    5 ar
     7    3    6 ar
     8    3   18 1
     9    4    6 ar
    10    4   13 1
    11    5   14 1
    12    6   15 1
    13    7   14 1
    14    7   19 1
    15    7   20 1
    16    8   15 1
    17    8   21 1
    18    8   22 1
    19    9   14 2
    20   10   14 2
    21   11   15 2
    22   12   15 2
    23   13   23 1
