@<TRIPOS>MOLECULE
*****
   20    21     0     0     0
SMALL
NO_CHARGES

@<TRIPOS>ATOM
      1 C1          1.8299   -0.9630   -0.0492 C.ar      1 <0>         0.0000
      2 C2          1.8627   -1.1651    2.7465 C.ar      1 <0>         0.0000
      3 C3         -1.5255    3.0652    1.4859 C.2       1 <0>         0.0000
      4 C4         -2.6675    3.0469    0.7160 C.2       1 <0>         0.0000
      5 C5          0.7063   -0.5483    0.6842 C.ar      1 <0>         0.0000
      6 C6          2.9558   -1.4371    0.6019 C.ar      1 <0>         0.0000
      7 C7          0.7459   -0.6749    2.0763 C.ar      1 <0>         0.0000
      8 C8          2.9725   -1.5332    1.9963 C.ar      1 <0>         0.0000
      9 C9         -1.1590    1.1771    0.4042 C.2       1 <0>         0.0000
     10 C10        -0.4749   -0.0424   -0.0835 C.2       1 <0>         0.0000
     11 N1         -0.6819    2.0056    1.3029 N.2       1 <0>         0.0000
     12 O1         -0.8309   -0.5823   -1.1262 O.2       1 <0>         0.0000
     13 F1          4.0457   -1.8137   -0.0967 F         1 <0>         0.0000
     14 F2         -0.3445   -0.3834    2.8152 F         1 <0>         0.0000
     15 F3          4.0720   -2.0002    2.6119 F         1 <0>         0.0000
     16 S1         -2.6921    1.6545   -0.2962 S.3       1 <0>         0.0000
     17 H1          1.8188   -0.9045   -1.1328 H         1 <0>         0.0000
     18 H2          1.8647   -1.2685    3.8262 H         1 <0>         0.0000
     19 H3         -1.2675    3.8404    2.1992 H         1 <0>         0.0000
     20 H4         -3.4729    3.7702    0.7011 H         1 <0>         0.0000
@<TRIPOS>BOND
     1    1    5 ar
     2    1    6 ar
     3    1   17 1
     4    2    7 ar
     5    2    8 ar
     6    2   18 1
     7    3    4 2
     8    3   11 1
     9    3   19 1
    10    4   16 1
    11    4   20 1
    12    5    7 ar
    13    5   10 1
    14    6    8 ar
    15    6   13 1
    16    7   14 1
    17    8   15 1
    18    9   10 1
    19    9   11 2
    20    9   16 1
    21   10   12 2
