@<TRIPOS>MOLECULE
*****
   28    29     0     0     0
SMALL
NO_CHARGES

@<TRIPOS>ATOM
      1 C1         -2.0150   -0.9497   -0.3572 C.ar      1 <0>         0.0000
      2 C2         -0.6256   -0.8992   -0.2624 C.ar      1 <0>         0.0000
      3 C3         -2.6892   -2.1825   -0.2504 C.ar      1 <0>         0.0000
      4 C4          1.4657   -3.8283    0.1696 C.2       1 <0>         0.0000
      5 C5          0.2129   -4.4117    0.1483 C.2       1 <0>         0.0000
      6 C6         -0.7245   -3.3299   -0.0131 C.ar      1 <0>         0.0000
      7 C7          0.0236   -2.1221   -0.0870 C.ar      1 <0>         0.0000
      8 C8         -0.0485   -5.8922    0.1184 C.3       1 <0>         0.0000
      9 C9         -2.2913   -6.3747    1.4132 C.3       1 <0>         0.0000
     10 C10        -0.7489   -6.4941    1.3535 C.3       1 <0>         0.0000
     11 N1         -2.0721   -3.3571   -0.0766 N.ar      1 <0>         0.0000
     12 N2          1.3573   -2.4603    0.0399 N.pl3     1 <0>         0.0000
     13 N3         -0.4336   -8.0057    1.3515 N.4       1 <0>         0.0000
     14 O1         -2.6963   -5.1334    1.8941 O.3       1 <0>         0.0000
     15 H1         -2.5911   -0.0409   -0.4969 H         1 <0>         0.0000
     16 H2         -0.0871    0.0429   -0.3218 H         1 <0>         0.0000
     17 H3         -3.7751   -2.2125   -0.2930 H         1 <0>         0.0000
     18 H4          2.4397   -4.2954    0.2437 H         1 <0>         0.0000
     19 H5          0.9251   -6.3838   -0.0080 H         1 <0>         0.0000
     20 H6         -0.6446   -6.1432   -0.7697 H         1 <0>         0.0000
     21 H7         -2.7047   -6.6035    0.4171 H         1 <0>         0.0000
     22 H8         -2.6753   -7.1297    2.1144 H         1 <0>         0.0000
     23 H9         -0.3218   -6.1124    2.2840 H         1 <0>         0.0000
     24 H10         2.1365   -1.8161    0.0089 H         1 <0>         0.0000
     25 H11        -0.8539   -8.4755    2.1632 H         1 <0>         0.0000
     26 H12         0.5765   -8.1886    1.3691 H         1 <0>         0.0000
     27 H13        -0.8128   -8.4544    0.5080 H         1 <0>         0.0000
     28 H14        -2.6486   -4.4791    1.1458 H         1 <0>         0.0000
@<TRIPOS>BOND
     1    1    2 ar
     2    1    3 ar
     3    1   15 1
     4    2    7 ar
     5    2   16 1
     6    3   11 ar
     7    3   17 1
     8    4    5 2
     9    4   12 1
    10    4   18 1
    11    5    6 1
    12    5    8 1
    13    6    7 ar
    14    6   11 ar
    15    7   12 1
    16    8   10 1
    17    8   19 1
    18    8   20 1
    19    9   10 1
    20    9   14 1
    21    9   21 1
    22    9   22 1
    23   10   13 1
    24   10   23 1
    25   12   24 1
    26   13   25 1
    27   13   26 1
    28   13   27 1
    29   14   28 1
