@<TRIPOS>MOLECULE
*****
   22    22     0     0     0
SMALL
NO_CHARGES

@<TRIPOS>ATOM
      1 C1          2.1503   -0.6928    0.1292 C.ar      1 <0>         0.0000
      2 C2          0.9795   -0.2398    0.6903 C.ar      1 <0>         0.0000
      3 C3          1.6598   -1.1012    2.8711 C.ar      1 <0>         0.0000
      4 C4          3.1770   -1.3690    0.8977 C.ar      1 <0>         0.0000
      5 C5          0.7273   -0.4322    2.0706 C.ar      1 <0>         0.0000
      6 C6          2.8326   -1.5684    2.2980 C.ar      1 <0>         0.0000
      7 N1         -0.3412    1.9115    2.8991 N.pl3     1 <0>         0.0000
      8 N2          5.4139   -1.7786    2.9388 N.pl3     1 <0>         0.0000
      9 O1          4.2808   -1.7253    0.3871 O.3       1 <0>         0.0000
     10 O2         -1.8580    0.2087    1.8467 O.2       1 <0>         0.0000
     11 O3         -0.8961   -0.3159    4.1444 O.2       1 <0>         0.0000
     12 O4          3.6456   -2.2199    4.7537 O.2       1 <0>         0.0000
     13 O5          3.9428   -3.9319    2.9358 O.2       1 <0>         0.0000
     14 S1         -0.7241    0.2312    2.7858 S.o2      1 <0>         0.0000
     15 S2          3.9284   -2.5097    3.3366 S.o2      1 <0>         0.0000
     16 H1          2.3549   -0.5479   -0.9286 H         1 <0>         0.0000
     17 H2          0.2353    0.2703    0.0841 H         1 <0>         0.0000
     18 H3          1.4693   -1.2592    3.9285 H         1 <0>         0.0000
     19 H4         -1.2123    2.3934    3.1325 H         1 <0>         0.0000
     20 H5          0.3178    2.0328    3.6701 H         1 <0>         0.0000
     21 H6          6.1437   -2.4046    3.2866 H         1 <0>         0.0000
     22 H7          5.4250   -1.7833    1.9015 H         1 <0>         0.0000
@<TRIPOS>BOND
     1    1    2 ar
     2    1    4 ar
     3    1   16 1
     4    2    5 ar
     5    2   17 1
     6    3    5 ar
     7    3    6 ar
     8    3   18 1
     9    4    6 ar
    10    4    9 1
    11    5   14 1
    12    6   15 1
    13    7   14 1
    14    7   19 1
    15    7   20 1
    16    8   15 1
    17    8   21 1
    18    8   22 1
    19   10   14 2
    20   11   14 2
    21   12   15 2
    22   13   15 2
