@<TRIPOS>MOLECULE
*****
   27    28     0     0     0
SMALL
NO_CHARGES

@<TRIPOS>ATOM
      1 C1          4.5016   -0.1094    0.1734 C.ar      1 <0>         0.0000
      2 C2          4.6154    1.1600   -0.3888 C.ar      1 <0>         0.0000
      3 C3          2.3359    1.4693   -0.5833 C.ar      1 <0>         0.0000
      4 C4          1.3150   -1.7373    0.8242 C.2       1 <0>         0.0000
      5 C5          2.0795    0.2070   -0.0179 C.ar      1 <0>         0.0000
      6 C6          0.8834   -0.5463    0.2887 C.2       1 <0>         0.0000
      7 C7          3.1985   -0.5857    0.3588 C.ar      1 <0>         0.0000
      8 C8         -0.5409   -0.1034    0.1101 C.3       1 <0>         0.0000
      9 C9         -0.3937    1.8731    1.7244 C.3       1 <0>         0.0000
     10 C10        -1.1402    0.5943    1.3507 C.3       1 <0>         0.0000
     11 N1          3.5724    1.9390   -0.7629 N.ar      1 <0>         0.0000
     12 N2          2.7084   -1.7647    0.8739 N.pl3     1 <0>         0.0000
     13 N3         -2.5554    0.8866    1.0815 N.3       1 <0>         0.0000
     14 O1         -0.4031    2.7915    0.6289 O.3       1 <0>         0.0000
     15 H1          5.3843   -0.6821    0.4456 H         1 <0>         0.0000
     16 H2          5.6033    1.5858   -0.5554 H         1 <0>         0.0000
     17 H3          1.5127    2.1106   -0.8902 H         1 <0>         0.0000
     18 H4          0.7393   -2.5842    1.1756 H         1 <0>         0.0000
     19 H5         -0.6298    0.5822   -0.7359 H         1 <0>         0.0000
     20 H6         -1.1674   -0.9736   -0.1200 H         1 <0>         0.0000
     21 H7          0.6337    1.6055    2.0032 H         1 <0>         0.0000
     22 H8         -0.8761    2.3241    2.6069 H         1 <0>         0.0000
     23 H9         -1.0000   -0.0825    2.2135 H         1 <0>         0.0000
     24 H10         3.2660   -2.5445    1.1914 H         1 <0>         0.0000
     25 H11        -2.9587    1.4134    1.8546 H         1 <0>         0.0000
     26 H12        -3.0794    0.0161    1.0124 H         1 <0>         0.0000
     27 H13         0.2122    3.5101    0.8388 H         1 <0>         0.0000
@<TRIPOS>BOND
     1    1    2 ar
     2    1    7 ar
     3    1   15 1
     4    2   11 ar
     5    2   16 1
     6    3    5 ar
     7    3   11 ar
     8    3   17 1
     9    4    6 2
    10    4   12 1
    11    4   18 1
    12    5    6 1
    13    5    7 ar
    14    6    8 1
    15    7   12 1
    16    8   10 1
    17    8   19 1
    18    8   20 1
    19    9   10 1
    20    9   14 1
    21    9   21 1
    22    9   22 1
    23   10   13 1
    24   10   23 1
    25   12   24 1
    26   13   25 1
    27   13   26 1
    28   14   27 1
