@<TRIPOS>MOLECULE
*****
   27    29     0     0     0
SMALL
NO_CHARGES

@<TRIPOS>ATOM
      1 C1          6.8293   -6.5898   -0.4703 C.ar      1 <0>         0.0000
      2 C2          8.1717   -6.4754   -0.8438 C.ar      1 <0>         0.0000
      3 C3          6.0546   -5.4425   -0.3292 C.ar      1 <0>         0.0000
      4 C4          2.1261   -2.4803    1.7937 C.ar      1 <0>         0.0000
      5 C5          0.9394   -2.2178    2.4640 C.ar      1 <0>         0.0000
      6 C6          8.7260   -5.2145   -1.0669 C.ar      1 <0>         0.0000
      7 C7          0.7788   -0.0976    1.2875 C.ar      1 <0>         0.0000
      8 C8          2.6757   -1.5739    0.8630 C.ar      1 <0>         0.0000
      9 C9          6.5858   -4.1576   -0.5620 C.ar      1 <0>         0.0000
     10 C10         0.2723   -1.0172    2.2030 C.ar      1 <0>         0.0000
     11 C11         1.9754   -0.3748    0.6195 C.ar      1 <0>         0.0000
     12 C12         7.9428   -4.0645   -0.9282 C.ar      1 <0>         0.0000
     13 C13         5.6595   -3.0227   -0.3943 C.2       1 <0>         0.0000
     14 C14         3.9344   -1.9796    0.2317 C.2       1 <0>         0.0000
     15 N1          4.4943   -3.1580    0.3380 N.2       1 <0>         0.0000
     16 N2          5.8110   -1.8284   -0.9337 N.2       1 <0>         0.0000
     17 O1          4.6643   -1.1287   -0.5153 O.3       1 <0>         0.0000
     18 Cl1        -1.2226   -0.6582    3.0347 Cl        1 <0>         0.0000
     19 Cl2         2.5223    0.8262   -0.5237 Cl        1 <0>         0.0000
     20 Br1         8.8338   -2.3963   -1.2205 Br        1 <0>         0.0000
     21 H1          6.3892   -7.5664   -0.2901 H         1 <0>         0.0000
     22 H2          8.7914   -7.3606   -0.9578 H         1 <0>         0.0000
     23 H3          5.0131   -5.5146   -0.0356 H         1 <0>         0.0000
     24 H4          2.6648   -3.4030    1.9797 H         1 <0>         0.0000
     25 H5          0.5362   -2.9268    3.1791 H         1 <0>         0.0000
     26 H6          9.7697   -5.1159   -1.3458 H         1 <0>         0.0000
     27 H7          0.2521    0.8285    1.0874 H         1 <0>         0.0000
@<TRIPOS>BOND
     1    1    2 ar
     2    1    3 ar
     3    1   21 1
     4    2    6 ar
     5    2   22 1
     6    3    9 ar
     7    3   23 1
     8    4    5 ar
     9    4    8 ar
    10    4   24 1
    11    5   10 ar
    12    5   25 1
    13    6   12 ar
    14    6   26 1
    15    7   10 ar
    16    7   11 ar
    17    7   27 1
    18    8   11 ar
    19    8   14 1
    20    9   12 ar
    21    9   13 1
    22   10   18 1
    23   11   19 1
    24   12   20 1
    25   13   15 1
    26   13   16 2
    27   14   15 2
    28   14   17 1
    29   16   17 1
