@<TRIPOS>MOLECULE
*****
   39    40     0     0     0
SMALL
NO_CHARGES

@<TRIPOS>ATOM
      1 C1          2.3953   -3.2957   -2.1616 C.2       1 <0>         0.0000
      2 C2          2.3792   -2.0798   -1.5275 C.2       1 <0>         0.0000
      3 C3          3.8099   -3.8028   -0.5091 C.2       1 <0>         0.0000
      4 C4          0.4405    1.1017   -0.9206 C.3       1 <0>         0.0000
      5 C5         -0.1003   -1.0849   -0.1570 C.3       1 <0>         0.0000
      6 C6         -0.5079    1.2713    0.2728 C.3       1 <0>         0.0000
      7 C7         -1.2135   -0.1120    0.2793 C.3       1 <0>         0.0000
      8 C8          4.7399   -4.6139    0.3438 C.3       1 <0>         0.0000
      9 C9          0.2508    1.6013    1.5645 C.3       1 <0>         0.0000
     10 C10        -1.8949   -0.5083    1.5864 C.3       1 <0>         0.0000
     11 C11         2.5812   -3.6628   -4.6552 C.3       1 <0>         0.0000
     12 C12         1.6622   -3.6698   -3.4212 C.3       1 <0>         0.0000
     13 C13         1.6525   -0.8130   -1.8730 C.3       1 <0>         0.0000
     14 N1          3.2130   -4.2549   -1.5761 N.2       1 <0>         0.0000
     15 N2          0.9787   -0.2472   -0.7150 N.3       1 <0>         0.0000
     16 O1         -2.1816   -0.1457   -0.7979 O.3       1 <0>         0.0000
     17 S1          3.4150   -2.1366   -0.1188 S.3       1 <0>         0.0000
     18 H1         -0.1202    1.1904   -1.8662 H         1 <0>         0.0000
     19 H2          1.2528    1.8373   -0.9298 H         1 <0>         0.0000
     20 H3          0.2769   -1.6770    0.6836 H         1 <0>         0.0000
     21 H4         -0.5168   -1.7803   -0.8976 H         1 <0>         0.0000
     22 H5         -1.2467    2.0588    0.0791 H         1 <0>         0.0000
     23 H6          5.7310   -4.1523    0.4057 H         1 <0>         0.0000
     24 H7          4.3574   -4.7170    1.3650 H         1 <0>         0.0000
     25 H8          4.8408   -5.6082   -0.0957 H         1 <0>         0.0000
     26 H9          0.9940    0.8319    1.7938 H         1 <0>         0.0000
     27 H10        -0.4256    1.6959    2.4195 H         1 <0>         0.0000
     28 H11         0.7813    2.5533    1.4561 H         1 <0>         0.0000
     29 H12        -2.6664    0.2209    1.8640 H         1 <0>         0.0000
     30 H13        -1.1824   -0.5751    2.4125 H         1 <0>         0.0000
     31 H14        -2.3772   -1.4834    1.4672 H         1 <0>         0.0000
     32 H15         2.9824   -2.6598   -4.8369 H         1 <0>         0.0000
     33 H16         2.0359   -3.9806   -5.5506 H         1 <0>         0.0000
     34 H17         3.4258   -4.3423   -4.5071 H         1 <0>         0.0000
     35 H18         1.2458   -4.6738   -3.2848 H         1 <0>         0.0000
     36 H19         0.8192   -2.9913   -3.5820 H         1 <0>         0.0000
     37 H20         2.3658   -0.0647   -2.2415 H         1 <0>         0.0000
     38 H21         0.9522   -1.0188   -2.7025 H         1 <0>         0.0000
     39 H22        -2.8671    0.5125   -0.5978 H         1 <0>         0.0000
@<TRIPOS>BOND
     1    1    2 2
     2    1   12 1
     3    1   14 1
     4    2   13 1
     5    2   17 1
     6    3    8 1
     7    3   14 2
     8    3   17 1
     9    4    6 1
    10    4   15 1
    11    4   18 1
    12    4   19 1
    13    5    7 1
    14    5   15 1
    15    5   20 1
    16    5   21 1
    17    6    7 1
    18    6    9 1
    19    6   22 1
    20    7   10 1
    21    7   16 1
    22    8   23 1
    23    8   24 1
    24    8   25 1
    25    9   26 1
    26    9   27 1
    27    9   28 1
    28   10   29 1
    29   10   30 1
    30   10   31 1
    31   11   12 1
    32   11   32 1
    33   11   33 1
    34   11   34 1
    35   12   35 1
    36   12   36 1
    37   13   15 1
    38   13   37 1
    39   13   38 1
    40   16   39 1
