@<TRIPOS>MOLECULE
*****
   17    17     0     0     0
SMALL
NO_CHARGES

@<TRIPOS>ATOM
      1 C1          0.8044    1.2710    1.0040 C.2       1 <0>         0.0000
      2 C2         -0.2770    0.3854    0.7618 C.2       1 <0>         0.0000
      3 C3          2.2609    1.1839    0.7407 C.2       1 <0>         0.0000
      4 C4         -1.9377    3.0826    2.2477 C.3       1 <0>         0.0000
      5 C5          3.9786   -0.1630   -0.1513 C.3       1 <0>         0.0000
      6 N1          0.2962    2.3703    1.5924 N.2       1 <0>         0.0000
      7 N2         -1.4077    0.9448    1.1970 N.2       1 <0>         0.0000
      8 N3         -0.9992    2.1241    1.6818 N.pl3     1 <0>         0.0000
      9 O1          3.0635    2.0502    1.0238 O.2       1 <0>         0.0000
     10 O2          2.5777    0.0140    0.1447 O.3       1 <0>         0.0000
     11 Br1        -0.3206   -1.3249   -0.0206 Br        1 <0>         0.0000
     12 H1         -2.6166    3.4368    1.4687 H         1 <0>         0.0000
     13 H2         -2.5111    2.6010    3.0418 H         1 <0>         0.0000
     14 H3         -1.3554    3.9114    2.6466 H         1 <0>         0.0000
     15 H4          4.0516   -1.1429   -0.6220 H         1 <0>         0.0000
     16 H5          4.5678   -0.1296    0.7679 H         1 <0>         0.0000
     17 H6          4.3249    0.6199   -0.8299 H         1 <0>         0.0000
@<TRIPOS>BOND
     1    1    2 1
     2    1    3 1
     3    1    6 2
     4    2    7 2
     5    2   11 1
     6    3    9 2
     7    3   10 1
     8    4    8 1
     9    4   12 1
    10    4   13 1
    11    4   14 1
    12    5   10 1
    13    5   15 1
    14    5   16 1
    15    5   17 1
    16    6    8 1
    17    7    8 1
