@<TRIPOS>MOLECULE
*****
   35    36     0     0     0
SMALL
NO_CHARGES

@<TRIPOS>ATOM
      1 C1         -2.1517    1.7677    1.5117 C.ar      1 <0>         0.0000
      2 C2         -2.8225    3.9840    0.8055 C.ar      1 <0>         0.0000
      3 C3         -1.7458    1.4610    0.2047 C.ar      1 <0>         0.0000
      4 C4         -2.6953    3.0165    1.8096 C.ar      1 <0>         0.0000
      5 C5         -1.8478    2.4301   -0.8084 C.ar      1 <0>         0.0000
      6 C6         -2.3917    3.6850   -0.4836 C.ar      1 <0>         0.0000
      7 C7         -1.2181    0.0694   -0.0317 C.2       1 <0>         0.0000
      8 C8         -1.7679   -3.2131   -2.8476 C.3       1 <0>         0.0000
      9 C9         -2.9890   -2.6737   -2.0901 C.3       1 <0>         0.0000
     10 C10        -0.8141   -2.0780   -3.2451 C.3       1 <0>         0.0000
     11 C11        -2.5710   -1.8420   -0.8704 C.3       1 <0>         0.0000
     12 C12        -0.3958   -1.2408   -2.0294 C.3       1 <0>         0.0000
     13 C13        -1.6269   -0.6889   -1.2849 C.3       1 <0>         0.0000
     14 C14        -0.0560    2.5426   -2.3418 C.3       1 <0>         0.0000
     15 O1         -0.5474   -0.4709    0.8412 O.2       1 <0>         0.0000
     16 O2         -3.1261    3.3625    3.0654 O.3       1 <0>         0.0000
     17 O3         -1.4205    2.1662   -2.0889 O.3       1 <0>         0.0000
     18 Cl1        -2.5303    4.9096   -1.7280 Cl        1 <0>         0.0000
     19 H1         -2.0336    1.0063    2.2792 H         1 <0>         0.0000
     20 H2         -3.2475    4.9539    1.0412 H         1 <0>         0.0000
     21 H3         -2.0887   -3.7674   -3.7374 H         1 <0>         0.0000
     22 H4         -1.2325   -3.9267   -2.2066 H         1 <0>         0.0000
     23 H5         -3.5901   -2.0504   -2.7661 H         1 <0>         0.0000
     24 H6         -3.6336   -3.5006   -1.7692 H         1 <0>         0.0000
     25 H7          0.0765   -2.4854   -3.7381 H         1 <0>         0.0000
     26 H8         -1.3101   -1.4280   -3.9789 H         1 <0>         0.0000
     27 H9         -3.4573   -1.4356   -0.3679 H         1 <0>         0.0000
     28 H10        -2.0509   -2.4764   -0.1434 H         1 <0>         0.0000
     29 H11         0.1895   -1.8519   -1.3327 H         1 <0>         0.0000
     30 H12         0.2478   -0.4131   -2.3478 H         1 <0>         0.0000
     31 H13        -2.1702   -0.0188   -1.9541 H         1 <0>         0.0000
     32 H14         0.1537    2.2508   -3.3722 H         1 <0>         0.0000
     33 H15         0.6226    2.0154   -1.6610 H         1 <0>         0.0000
     34 H16         0.0771    3.6240   -2.2306 H         1 <0>         0.0000
     35 H17        -2.9749    2.6184    3.6699 H         1 <0>         0.0000
@<TRIPOS>BOND
     1    1    3 ar
     2    1    4 ar
     3    1   19 1
     4    2    4 ar
     5    2    6 ar
     6    2   20 1
     7    3    5 ar
     8    3    7 1
     9    4   16 1
    10    5    6 ar
    11    5   17 1
    12    6   18 1
    13    7   13 1
    14    7   15 2
    15    8   10 1
    16    8    9 1
    17    8   21 1
    18    8   22 1
    19    9   11 1
    20    9   23 1
    21    9   24 1
    22   10   12 1
    23   10   25 1
    24   10   26 1
    25   11   13 1
    26   11   27 1
    27   11   28 1
    28   12   13 1
    29   12   29 1
    30   12   30 1
    31   13   31 1
    32   14   17 1
    33   14   32 1
    34   14   33 1
    35   14   34 1
    36   16   35 1
