@<TRIPOS>MOLECULE
*****
   19    19     0     0     0
SMALL
NO_CHARGES

@<TRIPOS>ATOM
      1 C1          1.9697   -1.4355   -0.0680 C.ar      1 <0>         0.0000
      2 C2          0.8385   -0.6956    1.9572 C.ar      1 <0>         0.0000
      3 C3          2.5964   -2.3816    2.0908 C.ar      1 <0>         0.0000
      4 C4          1.0172   -0.6418    0.5708 C.ar      1 <0>         0.0000
      5 C5          2.7545   -2.2843    0.7111 C.ar      1 <0>         0.0000
      6 C6          1.6335   -1.5707    2.6854 C.ar      1 <0>         0.0000
      7 C7          0.1260    0.2752   -0.2312 C.3       1 <0>         0.0000
      8 C8          4.9585   -2.7595   -0.1262 C.3       1 <0>         0.0000
      9 O1          3.6578   -3.1479    0.0737 O.3       1 <0>         0.0000
     10 F1          1.4661   -1.6456    4.0239 F         1 <0>         0.0000
     11 F2          0.5297    0.3876   -1.5156 F         1 <0>         0.0000
     12 F3         -1.1556   -0.1730   -0.2503 F         1 <0>         0.0000
     13 F4          0.0939    1.5235    0.2969 F         1 <0>         0.0000
     14 Cl1         5.0833   -1.2659   -1.1521 Cl        1 <0>         0.0000
     15 Cl2         5.7425   -4.1261   -0.9634 Cl        1 <0>         0.0000
     16 Cl3         5.8273   -2.4288    1.4368 Cl        1 <0>         0.0000
     17 H1          2.1021   -1.4028   -1.1420 H         1 <0>         0.0000
     18 H2          0.1014   -0.0813    2.4638 H         1 <0>         0.0000
     19 H3          3.1945   -3.0625    2.6846 H         1 <0>         0.0000
@<TRIPOS>BOND
     1    1    4 ar
     2    1    5 ar
     3    1   17 1
     4    2    4 ar
     5    2    6 ar
     6    2   18 1
     7    3    5 ar
     8    3    6 ar
     9    3   19 1
    10    4    7 1
    11    5    9 1
    12    6   10 1
    13    7   11 1
    14    7   12 1
    15    7   13 1
    16    8    9 1
    17    8   14 1
    18    8   15 1
    19    8   16 1
