@<TRIPOS>MOLECULE
*****
   35    36     0     0     0
SMALL
NO_CHARGES

@<TRIPOS>ATOM
      1 C1         -2.4069    1.9226   -1.2813 C.ar      1 <0>         0.0000
      2 C2         -3.0730    3.7676    0.1356 C.ar      1 <0>         0.0000
      3 C3         -1.7556    1.3018   -0.2035 C.ar      1 <0>         0.0000
      4 C4         -3.0448    3.1539   -1.1195 C.ar      1 <0>         0.0000
      5 C5         -1.7637    1.9183    1.0638 C.ar      1 <0>         0.0000
      6 C6         -2.4455    3.1401    1.2081 C.ar      1 <0>         0.0000
      7 C7         -1.0381   -0.0100   -0.4195 C.2       1 <0>         0.0000
      8 C8         -2.8539   -3.7776   -1.7364 C.3       1 <0>         0.0000
      9 C9         -3.7699   -2.5965   -1.3883 C.3       1 <0>         0.0000
     10 C10        -1.5720   -3.3020   -2.4342 C.3       1 <0>         0.0000
     11 C11        -3.0344   -1.5388   -0.5539 C.3       1 <0>         0.0000
     12 C12        -0.8326   -2.2468   -1.6004 C.3       1 <0>         0.0000
     13 C13        -1.7475   -1.0625   -1.2687 C.3       1 <0>         0.0000
     14 C14        -1.8584    0.3892    2.8615 C.3       1 <0>         0.0000
     15 O1          0.0471   -0.2266    0.0959 O.2       1 <0>         0.0000
     16 O2         -3.6690    3.8114   -2.1510 O.3       1 <0>         0.0000
     17 O3         -1.1155    1.3787    2.1402 O.3       1 <0>         0.0000
     18 Cl1        -2.5037    3.9033    2.7816 Cl        1 <0>         0.0000
     19 H1         -2.3916    1.4564   -2.2631 H         1 <0>         0.0000
     20 H2         -3.5788    4.7189    0.2610 H         1 <0>         0.0000
     21 H3         -3.3882   -4.4961   -2.3688 H         1 <0>         0.0000
     22 H4         -2.5858   -4.3092   -0.8131 H         1 <0>         0.0000
     23 H5         -4.1346   -2.1326   -2.3154 H         1 <0>         0.0000
     24 H6         -4.6548   -2.9461   -0.8437 H         1 <0>         0.0000
     25 H7         -0.9087   -4.1527   -2.6281 H         1 <0>         0.0000
     26 H8         -1.8304   -2.8786   -3.4153 H         1 <0>         0.0000
     27 H9         -3.6932   -0.6886   -0.3479 H         1 <0>         0.0000
     28 H10        -2.7565   -1.9718    0.4165 H         1 <0>         0.0000
     29 H11        -0.4753   -2.6910   -0.6645 H         1 <0>         0.0000
     30 H12         0.0588   -1.8910   -2.1271 H         1 <0>         0.0000
     31 H13        -2.0629   -0.5923   -2.2105 H         1 <0>         0.0000
     32 H14        -1.2213    0.0746    3.6893 H         1 <0>         0.0000
     33 H15        -2.0806   -0.4758    2.2257 H         1 <0>         0.0000
     34 H16        -2.7930    0.8093    3.2523 H         1 <0>         0.0000
     35 H17        -3.5621    3.3003   -2.9687 H         1 <0>         0.0000
@<TRIPOS>BOND
     1    1    3 ar
     2    1    4 ar
     3    1   19 1
     4    2    4 ar
     5    2    6 ar
     6    2   20 1
     7    3    5 ar
     8    3    7 1
     9    4   16 1
    10    5    6 ar
    11    5   17 1
    12    6   18 1
    13    7   13 1
    14    7   15 2
    15    8   10 1
    16    8    9 1
    17    8   21 1
    18    8   22 1
    19    9   11 1
    20    9   23 1
    21    9   24 1
    22   10   12 1
    23   10   25 1
    24   10   26 1
    25   11   13 1
    26   11   27 1
    27   11   28 1
    28   12   13 1
    29   12   29 1
    30   12   30 1
    31   13   31 1
    32   14   17 1
    33   14   32 1
    34   14   33 1
    35   14   34 1
    36   16   35 1
