@<TRIPOS>MOLECULE
*****
   25    27     0     0     0
SMALL
NO_CHARGES

@<TRIPOS>ATOM
      1 C1          0.1010   -0.2954    1.0266 C.ar      1 <0>         0.0000
      2 C2          7.4188    0.3978    7.1509 C.ar      1 <0>         0.0000
      3 C3          1.2607    0.0432    1.7202 C.ar      1 <0>         0.0000
      4 C4          6.5691    0.6129    6.0821 C.ar      1 <0>         0.0000
      5 C5         -0.6849   -1.3319    1.5335 C.ar      1 <0>         0.0000
      6 C6          7.0683   -0.6203    8.0489 C.ar      1 <0>         0.0000
      7 C7          1.6097   -0.6487    2.8898 C.ar      1 <0>         0.0000
      8 C8          5.4314   -0.2117    5.9970 C.ar      1 <0>         0.0000
      9 C9          0.7334   -1.6830    3.3080 C.ar      1 <0>         0.0000
     10 C10         4.4739   -0.0448    4.8840 C.2       1 <0>         0.0000
     11 C11         2.8220   -0.2975    3.6181 C.2       1 <0>         0.0000
     12 N1         -0.3777   -2.0100    2.6466 N.ar      1 <0>         0.0000
     13 N2          5.9722   -1.3752    7.9193 N.ar      1 <0>         0.0000
     14 N3          5.1493   -1.1716    6.8898 N.ar      1 <0>         0.0000
     15 N4          3.3345   -0.7975    4.7109 N.2       1 <0>         0.0000
     16 N5          4.6703    0.8742    3.9584 N.2       1 <0>         0.0000
     17 O1          3.5746    0.7179    3.1051 O.3       1 <0>         0.0000
     18 O2          1.0088   -2.3855    4.4203 O.3       1 <0>         0.0000
     19 H1         -0.1876    0.2264    0.1204 H         1 <0>         0.0000
     20 H2          8.3202    0.9861    7.2969 H         1 <0>         0.0000
     21 H3          1.9047    0.8417    1.3664 H         1 <0>         0.0000
     22 H4          6.7517    1.3760    5.3326 H         1 <0>         0.0000
     23 H5         -1.6007   -1.6354    1.0295 H         1 <0>         0.0000
     24 H6          7.6845   -0.8512    8.9147 H         1 <0>         0.0000
     25 H7          0.2839   -3.0327    4.5141 H         1 <0>         0.0000
@<TRIPOS>BOND
     1    1    3 ar
     2    1    5 ar
     3    1   19 1
     4    2    4 ar
     5    2    6 ar
     6    2   20 1
     7    3    7 ar
     8    3   21 1
     9    4    8 ar
    10    4   22 1
    11    5   12 ar
    12    5   23 1
    13    6   13 ar
    14    6   24 1
    15    7    9 ar
    16    7   11 1
    17    8   10 1
    18    8   14 ar
    19    9   12 ar
    20    9   18 1
    21   10   15 1
    22   10   16 2
    23   11   15 2
    24   11   17 1
    25   13   14 ar
    26   16   17 1
    27   18   25 1
