@<TRIPOS>MOLECULE
*****
   24    24     0     0     0
SMALL
NO_CHARGES

@<TRIPOS>ATOM
      1 C1          1.9401   -0.7287   -0.0054 C.ar      1 <0>         0.0000
      2 C2          2.9525   -0.2608    0.8404 C.ar      1 <0>         0.0000
      3 C3          0.7761   -1.2736    0.5449 C.ar      1 <0>         0.0000
      4 C4          2.8069   -0.3381    2.2271 C.ar      1 <0>         0.0000
      5 C5          0.6284   -1.3461    1.9332 C.ar      1 <0>         0.0000
      6 C6          1.6399   -0.8832    2.7871 C.ar      1 <0>         0.0000
      7 C7          2.5640   -1.7052    5.0354 C.3       1 <0>         0.0000
      8 C8          0.0852    1.5617    4.0091 C.3       1 <0>         0.0000
      9 C9          1.4507   -0.9692    4.2810 C.3       1 <0>         0.0000
     10 O1          0.7275    0.5435    6.3830 O.2       1 <0>         0.0000
     11 O2          2.5971    1.4115    4.8748 O.2       1 <0>         0.0000
     12 S1          1.3073    0.7146    5.0379 S.o2      1 <0>         0.0000
     13 H1          2.0579   -0.6685   -1.0841 H         1 <0>         0.0000
     14 H2          3.8572    0.1689    0.4185 H         1 <0>         0.0000
     15 H3         -0.0149   -1.6413   -0.1033 H         1 <0>         0.0000
     16 H4          3.5850    0.0508    2.8760 H         1 <0>         0.0000
     17 H5         -0.2800   -1.7700    2.3564 H         1 <0>         0.0000
     18 H6          3.5285   -1.2137    4.8935 H         1 <0>         0.0000
     19 H7          2.3465   -1.7446    6.1057 H         1 <0>         0.0000
     20 H8          2.6336   -2.7263    4.6503 H         1 <0>         0.0000
     21 H9         -0.0634    2.5358    4.4793 H         1 <0>         0.0000
     22 H10         0.4773    1.6739    2.9989 H         1 <0>         0.0000
     23 H11        -0.8449    0.9912    4.0177 H         1 <0>         0.0000
     24 H12         0.4844   -1.4280    4.5104 H         1 <0>         0.0000
@<TRIPOS>BOND
     1    1    3 ar
     2    1    2 ar
     3    1   13 1
     4    2    4 ar
     5    2   14 1
     6    3    5 ar
     7    3   15 1
     8    4    6 ar
     9    4   16 1
    10    5    6 ar
    11    5   17 1
    12    6    9 1
    13    7    9 1
    14    7   18 1
    15    7   19 1
    16    7   20 1
    17    8   12 1
    18    8   21 1
    19    8   22 1
    20    8   23 1
    21    9   12 1
    22    9   24 1
    23   10   12 2
    24   11   12 2
