@<TRIPOS>MOLECULE
*****
   23    24     0     0     0
SMALL
NO_CHARGES

@<TRIPOS>ATOM
      1 C1          2.0526   -0.7661    0.0057 C.ar      1 <0>         0.0000
      2 C2          0.8539   -0.4942    0.6708 C.ar      1 <0>         0.0000
      3 C3          3.1382   -1.3068    0.6984 C.ar      1 <0>         0.0000
      4 C4          0.7484   -0.7792    2.0296 C.ar      1 <0>         0.0000
      5 C5          3.0632   -1.6174    2.0630 C.ar      1 <0>         0.0000
      6 C6          1.8349   -1.3491    2.6991 C.ar      1 <0>         0.0000
      7 C7          5.9067   -3.0785    1.3245 C.2       1 <0>         0.0000
      8 C8          4.2832   -3.7534    2.8037 C.3       1 <0>         0.0000
      9 C9          4.2793   -2.2016    2.7812 C.3       1 <0>         0.0000
     10 N1          5.5342   -1.9848    2.0846 N.am      1 <0>         0.0000
     11 N2          1.6228   -1.6743    4.1196 N.pl3     1 <0>         0.0000
     12 O1          2.3066   -2.5828    4.6148 O.3       1 <0>         0.0000
     13 O2          6.7605   -3.1299    0.4682 O.2       1 <0>         0.0000
     14 O3          0.7634   -1.0399    4.7362 O.2       1 <0>         0.0000
     15 O4          5.1287   -4.1413    1.7004 O.3       1 <0>         0.0000
     16 H1          2.1482   -0.5534   -1.0554 H         1 <0>         0.0000
     17 H2          0.0093   -0.0670    0.1387 H         1 <0>         0.0000
     18 H3          4.0631   -1.4941    0.1634 H         1 <0>         0.0000
     19 H4         -0.1627   -0.5792    2.5815 H         1 <0>         0.0000
     20 H5          4.7170   -4.1282    3.7340 H         1 <0>         0.0000
     21 H6          3.2974   -4.1880    2.6518 H         1 <0>         0.0000
     22 H7          4.3330   -1.8165    3.7984 H         1 <0>         0.0000
     23 H8          5.8542   -1.0709    1.7927 H         1 <0>         0.0000
@<TRIPOS>BOND
     1    1    2 ar
     2    1    3 ar
     3    1   16 1
     4    2    4 ar
     5    2   17 1
     6    3    5 ar
     7    3   18 1
     8    4    6 ar
     9    4   19 1
    10    5    6 ar
    11    5    9 1
    12    6   11 1
    13    7   10 am
    14    7   13 2
    15    7   15 1
    16    8    9 1
    17    8   15 1
    18    8   20 1
    19    8   21 1
    20    9   10 1
    21    9   22 1
    22   10   23 1
    23   11   12 1
    24   11   14 2
