@<TRIPOS>MOLECULE
*****
   32    32     0     0     0
SMALL
NO_CHARGES

@<TRIPOS>ATOM
      1 C1         -1.0782   -1.7066   -1.2880 C.3       1 <0>         0.0000
      2 C2         -0.2146   -2.9709   -1.5525 C.3       1 <0>         0.0000
      3 C3         -0.3140   -0.9477   -0.1870 C.3       1 <0>         0.0000
      4 C4          0.9430   -2.8869   -0.5299 C.3       1 <0>         0.0000
      5 C5          1.3903   -4.2319    0.0473 C.3       1 <0>         0.0000
      6 C6          3.8425   -8.9103   -1.2265 C.3       1 <0>         0.0000
      7 C7          1.9939   -5.1284   -1.0348 C.3       1 <0>         0.0000
      8 C8          3.2876   -7.5748   -1.7204 C.3       1 <0>         0.0000
      9 C9          4.4335   -9.7183   -2.3616 C.3       1 <0>         0.0000
     10 N1          0.3860   -2.0268    0.5221 N.3       1 <0>         0.0000
     11 O1          1.4224   -7.4480    0.1815 O.2       1 <0>         0.0000
     12 O2          3.6946   -6.3666    0.6222 O.2       1 <0>         0.0000
     13 F1          3.5078  -10.0089   -3.3127 F         1 <0>         0.0000
     14 F2          5.4432   -9.0554   -2.9844 F         1 <0>         0.0000
     15 F3          4.9365  -10.8921   -1.9175 F         1 <0>         0.0000
     16 S1          2.5848   -6.6785   -0.2969 S.o2      1 <0>         0.0000
     17 H1         -1.2152   -1.0941   -2.1830 H         1 <0>         0.0000
     18 H2         -2.0691   -1.9940   -0.9280 H         1 <0>         0.0000
     19 H3         -0.8015   -3.8792   -1.3826 H         1 <0>         0.0000
     20 H4          0.1629   -3.0103   -2.5782 H         1 <0>         0.0000
     21 H5          0.3814   -0.2214   -0.6439 H         1 <0>         0.0000
     22 H6         -0.9750   -0.4021    0.4931 H         1 <0>         0.0000
     23 H7          1.8120   -2.4082   -1.0217 H         1 <0>         0.0000
     24 H8          0.5301   -4.7247    0.5087 H         1 <0>         0.0000
     25 H9          2.1370   -4.0664    0.8312 H         1 <0>         0.0000
     26 H10         3.0529   -9.5095   -0.7672 H         1 <0>         0.0000
     27 H11         4.6291   -8.7496   -0.4858 H         1 <0>         0.0000
     28 H12         1.2595   -5.4057   -1.7959 H         1 <0>         0.0000
     29 H13         2.8613   -4.6615   -1.5118 H         1 <0>         0.0000
     30 H14         4.0721   -6.9454   -2.1466 H         1 <0>         0.0000
     31 H15         2.4820   -7.7150   -2.4448 H         1 <0>         0.0000
     32 H16         1.1146   -1.6687    1.1362 H         1 <0>         0.0000
@<TRIPOS>BOND
     1    1    2 1
     2    1    3 1
     3    1   17 1
     4    1   18 1
     5    2    4 1
     6    2   19 1
     7    2   20 1
     8    3   10 1
     9    3   21 1
    10    3   22 1
    11    4    5 1
    12    4   10 1
    13    4   23 1
    14    5    7 1
    15    5   24 1
    16    5   25 1
    17    6    8 1
    18    6    9 1
    19    6   26 1
    20    6   27 1
    21    7   16 1
    22    7   28 1
    23    7   29 1
    24    8   16 1
    25    8   30 1
    26    8   31 1
    27    9   13 1
    28    9   14 1
    29    9   15 1
    30   10   32 1
    31   11   16 2
    32   12   16 2
