@<TRIPOS>MOLECULE
*****
   37    39     0     0     0
SMALL
NO_CHARGES

@<TRIPOS>ATOM
      1 C1         -1.4878   -2.3275   -1.4237 C.1       1 <0>         0.0000
      2 C2          2.8698   -2.1022   -2.9027 C.ar      1 <0>         0.0000
      3 C3          2.1811   -1.4727   -1.8704 C.ar      1 <0>         0.0000
      4 C4          2.4280   -1.9625   -4.2253 C.ar      1 <0>         0.0000
      5 C5         -0.7506   -2.6194   -0.2471 C.2       1 <0>         0.0000
      6 C6          1.0506   -0.6887   -2.1610 C.ar      1 <0>         0.0000
      7 C7         -0.6963   -3.8965    0.4201 C.2       1 <0>         0.0000
      8 C8          1.2887   -1.2143   -4.5416 C.ar      1 <0>         0.0000
      9 C9          0.6019   -0.5879   -3.4887 C.ar      1 <0>         0.0000
     10 C10         0.0788   -3.8579    1.5454 C.2       1 <0>         0.0000
     11 C11        -0.0100   -1.6270    0.3914 C.2       1 <0>         0.0000
     12 C12         0.3893    0.1041   -1.1026 C.2       1 <0>         0.0000
     13 C13        -1.3879   -5.1522   -0.0469 C.3       1 <0>         0.0000
     14 C14         0.3510   -5.0248    2.4537 C.3       1 <0>         0.0000
     15 C15        -1.4050   -6.2186    1.0603 C.3       1 <0>         0.0000
     16 C16        -0.0370   -6.3367    1.7476 C.3       1 <0>         0.0000
     17 C17         0.7703   -1.0964   -5.9524 C.3       1 <0>         0.0000
     18 N1         -2.0662   -2.0137   -2.3893 N.1       1 <0>         0.0000
     19 N2          0.0485   -0.2834    0.0780 N.2       1 <0>         0.0000
     20 O1         -0.5404    0.1318   -3.7737 O.3       1 <0>         0.0000
     21 S1          0.7283   -2.2530    1.8396 S.3       1 <0>         0.0000
     22 H1          3.7546   -2.6938   -2.6846 H         1 <0>         0.0000
     23 H2          2.5283   -1.5556   -0.8448 H         1 <0>         0.0000
     24 H3          2.9706   -2.4589   -5.0268 H         1 <0>         0.0000
     25 H4          0.2128    1.1575   -1.3287 H         1 <0>         0.0000
     26 H5         -2.4090   -4.9182   -0.3688 H         1 <0>         0.0000
     27 H6         -0.8702   -5.5386   -0.9351 H         1 <0>         0.0000
     28 H7          1.4071   -5.0510    2.7458 H         1 <0>         0.0000
     29 H8         -0.2253   -4.9159    3.3826 H         1 <0>         0.0000
     30 H9         -2.1614   -5.9515    1.8091 H         1 <0>         0.0000
     31 H10        -1.7024   -7.1840    0.6376 H         1 <0>         0.0000
     32 H11         0.7252   -6.5812    0.9972 H         1 <0>         0.0000
     33 H12        -0.0444   -7.1543    2.4761 H         1 <0>         0.0000
     34 H13        -0.2374   -1.5172   -6.0326 H         1 <0>         0.0000
     35 H14         0.6984   -0.0490   -6.2606 H         1 <0>         0.0000
     36 H15         1.4235   -1.6231   -6.6532 H         1 <0>         0.0000
     37 H16        -1.3013   -0.3428   -3.3783 H         1 <0>         0.0000
@<TRIPOS>BOND
     1    1    5 1
     2    1   18 3
     3    2    3 ar
     4    2    4 ar
     5    2   22 1
     6    3    6 ar
     7    3   23 1
     8    4    8 ar
     9    4   24 1
    10    5    7 1
    11    5   11 2
    12    6    9 ar
    13    6   12 1
    14    7   10 2
    15    7   13 1
    16    8    9 ar
    17    8   17 1
    18    9   20 1
    19   10   14 1
    20   10   21 1
    21   11   19 1
    22   11   21 1
    23   12   19 2
    24   12   25 1
    25   13   15 1
    26   13   26 1
    27   13   27 1
    28   14   16 1
    29   14   28 1
    30   14   29 1
    31   15   16 1
    32   15   30 1
    33   15   31 1
    34   16   32 1
    35   16   33 1
    36   17   34 1
    37   17   35 1
    38   17   36 1
    39   20   37 1
