@<TRIPOS>MOLECULE
*****
   33    33     0     0     0
SMALL
NO_CHARGES

@<TRIPOS>ATOM
      1 C1         -0.7417   -1.3872   -1.0735 C.3       1 <0>         0.0000
      2 C2         -0.3381   -2.5772   -0.1936 C.3       1 <0>         0.0000
      3 C3         -1.7515   -0.6329   -0.2088 C.3       1 <0>         0.0000
      4 C4         -0.1814   -1.9785    1.2075 C.3       1 <0>         0.0000
      5 C5         -0.4243   -2.9016    2.3956 C.3       1 <0>         0.0000
      6 C6          1.2134   -7.1923    5.2308 C.3       1 <0>         0.0000
      7 C7          0.6096   -4.0289    2.4707 C.3       1 <0>         0.0000
      8 C8          1.4608   -6.3014    4.0113 C.3       1 <0>         0.0000
      9 C9          2.2665   -8.2825    5.3149 C.3       1 <0>         0.0000
     10 N1         -1.2352   -0.8364    1.2221 N.4       1 <0>         0.0000
     11 O1         -1.1196   -5.6623    3.6513 O.2       1 <0>         0.0000
     12 O2          0.3210   -4.1373    5.1094 O.2       1 <0>         0.0000
     13 F1          2.2456   -9.0768    4.2145 F         1 <0>         0.0000
     14 F2          3.5158   -7.7591    5.4043 F         1 <0>         0.0000
     15 F3          2.0681   -9.0637    6.3917 F         1 <0>         0.0000
     16 S1          0.1737   -5.0258    3.9460 S.o2      1 <0>         0.0000
     17 H1          0.1232   -0.7553   -1.2975 H         1 <0>         0.0000
     18 H2         -1.1888   -1.6907   -2.0217 H         1 <0>         0.0000
     19 H3         -1.1207   -3.3442   -0.1913 H         1 <0>         0.0000
     20 H4          0.5909   -3.0453   -0.5240 H         1 <0>         0.0000
     21 H5         -1.8312    0.4356   -0.4079 H         1 <0>         0.0000
     22 H6         -2.7441   -1.0827   -0.2528 H         1 <0>         0.0000
     23 H7          0.7837   -1.4729    1.2970 H         1 <0>         0.0000
     24 H8         -1.4236   -3.3465    2.3148 H         1 <0>         0.0000
     25 H9         -0.3818   -2.3329    3.3312 H         1 <0>         0.0000
     26 H10         0.2365   -7.6767    5.1699 H         1 <0>         0.0000
     27 H11         1.2594   -6.6109    6.1541 H         1 <0>         0.0000
     28 H12         0.5699   -4.6917    1.6032 H         1 <0>         0.0000
     29 H13         1.6244   -3.6470    2.6121 H         1 <0>         0.0000
     30 H14         2.4214   -5.7853    4.0796 H         1 <0>         0.0000
     31 H15         1.3983   -6.8678    3.0790 H         1 <0>         0.0000
     32 H16        -0.8204    0.0240    1.5914 H         1 <0>         0.0000
     33 H17        -2.0058   -1.0751    1.8551 H         1 <0>         0.0000
@<TRIPOS>BOND
     1    1    2 1
     2    1    3 1
     3    1   17 1
     4    1   18 1
     5    2    4 1
     6    2   19 1
     7    2   20 1
     8    3   10 1
     9    3   21 1
    10    3   22 1
    11    4    5 1
    12    4   10 1
    13    4   23 1
    14    5    7 1
    15    5   24 1
    16    5   25 1
    17    6    8 1
    18    6    9 1
    19    6   26 1
    20    6   27 1
    21    7   16 1
    22    7   28 1
    23    7   29 1
    24    8   16 1
    25    8   30 1
    26    8   31 1
    27    9   13 1
    28    9   14 1
    29    9   15 1
    30   10   32 1
    31   10   33 1
    32   11   16 2
    33   12   16 2
