@<TRIPOS>MOLECULE
*****
   29    30     0     0     0
SMALL
NO_CHARGES

@<TRIPOS>ATOM
      1 C1          6.1000   -3.3574   -1.2719 C.ar      1 <0>         0.0000
      2 C2          2.7973   -1.6044    1.9726 C.ar      1 <0>         0.0000
      3 C3          1.7391   -0.9921   -0.1359 C.ar      1 <0>         0.0000
      4 C4          7.1505   -3.9196   -1.9806 C.ar      1 <0>         0.0000
      5 C5          1.7375   -1.0410    2.6810 C.ar      1 <0>         0.0000
      6 C6          0.6789   -0.4274    0.5636 C.ar      1 <0>         0.0000
      7 C7          6.1067   -3.2404   -4.0766 C.ar      1 <0>         0.0000
      8 C8          2.8072   -1.5801    0.5692 C.ar      1 <0>         0.0000
      9 C9          5.0286   -2.7245   -1.9344 C.ar      1 <0>         0.0000
     10 C10         7.1549   -3.8614   -3.3883 C.ar      1 <0>         0.0000
     11 C11         5.0693   -2.6870   -3.3421 C.ar      1 <0>         0.0000
     12 C12         0.6940   -0.4525    1.9643 C.ar      1 <0>         0.0000
     13 N1          3.9349   -2.1846   -0.0429 N.2       1 <0>         0.0000
     14 N2          3.9244   -2.1301   -1.3075 N.2       1 <0>         0.0000
     15 O1         -1.8123    0.4282    1.9697 O.2       1 <0>         0.0000
     16 O2         -0.7550   -0.3392    4.1708 O.2       1 <0>         0.0000
     17 O3          8.1594   -4.3959   -4.1396 O.3       1 <0>         0.0000
     18 O4         -0.0950    1.8144    3.1325 O.3       1 <0>         0.0000
     19 F1          4.0665   -2.0924   -4.0143 F         1 <0>         0.0000
     20 S1         -0.6621    0.2854    2.8623 S.o2      1 <0>         0.0000
     21 H1          6.0793   -3.3930   -0.1881 H         1 <0>         0.0000
     22 H2          3.6280   -2.0738    2.4909 H         1 <0>         0.0000
     23 H3          1.7561   -0.9944   -1.2202 H         1 <0>         0.0000
     24 H4          7.9696   -4.4049   -1.4537 H         1 <0>         0.0000
     25 H5          1.7098   -1.0644    3.7654 H         1 <0>         0.0000
     26 H6         -0.1641    0.0121    0.0395 H         1 <0>         0.0000
     27 H7          6.1053   -3.1932   -5.1601 H         1 <0>         0.0000
     28 H8          8.8234   -4.7966   -3.5555 H         1 <0>         0.0000
     29 H9         -0.5624    2.4148    2.5202 H         1 <0>         0.0000
@<TRIPOS>BOND
     1    1    4 ar
     2    1    9 ar
     3    1   21 1
     4    2    5 ar
     5    2    8 ar
     6    2   22 1
     7    3    6 ar
     8    3    8 ar
     9    3   23 1
    10    4   10 ar
    11    4   24 1
    12    5   12 ar
    13    5   25 1
    14    6   12 ar
    15    6   26 1
    16    7   10 ar
    17    7   11 ar
    18    7   27 1
    19    8   13 1
    20    9   11 ar
    21    9   14 1
    22   10   17 1
    23   11   19 1
    24   12   20 1
    25   13   14 2
    26   15   20 2
    27   16   20 2
    28   17   28 1
    29   18   20 1
    30   18   29 1
