@<TRIPOS>MOLECULE
*****
   17    18     0     0     0
SMALL
NO_CHARGES

@<TRIPOS>ATOM
      1 C1          0.7173    0.0035    2.7040 C.2       1 <0>         0.0000
      2 C2          0.2989    0.8167    3.7071 C.2       1 <0>         0.0000
      3 C3          0.0893    0.5469    1.5281 C.2       1 <0>         0.0000
      4 C4          1.1946   -1.0825   -0.2383 C.2       1 <0>         0.0000
      5 C5         -1.1660   -0.0215   -0.6246 C.3       1 <0>         0.0000
      6 C6         -0.1628    1.0330   -0.9755 C.3       1 <0>         0.0000
      7 C7          0.1674    0.0357    0.1342 C.3       1 <0>         0.0000
      8 N1         -0.6437    1.6076    1.8344 N.2       1 <0>         0.0000
      9 O1          1.9246   -1.5243    0.6925 O.co2     1 <0>         0.0000
     10 O2          1.1713   -1.4224   -1.4509 O.co2     1 <0>         0.0000
     11 O3         -0.5182    1.7890    3.2337 O.3       1 <0>         0.0000
     12 H1          1.3806   -0.8473    2.6999 H         1 <0>         0.0000
     13 H2          0.4875    0.8435    4.7736 H         1 <0>         0.0000
     14 H3         -2.0506    0.2821   -0.0710 H         1 <0>         0.0000
     15 H4         -1.2638   -0.8626   -1.3032 H         1 <0>         0.0000
     16 H5          0.4062    0.8870   -1.8874 H         1 <0>         0.0000
     17 H6         -0.3681    2.0542   -0.6673 H         1 <0>         0.0000
@<TRIPOS>BOND
     1    1    2 2
     2    1    3 1
     3    1   12 1
     4    2   11 1
     5    2   13 1
     6    3    7 1
     7    3    8 2
     8    4    7 1
     9    4    9 1
    10    4   10 2
    11    5    6 1
    12    5    7 1
    13    5   14 1
    14    5   15 1
    15    6    7 1
    16    6   16 1
    17    6   17 1
    18    8   11 1
