@<TRIPOS>MOLECULE
*****
   30    32     0     0     0
SMALL
NO_CHARGES

@<TRIPOS>ATOM
      1 C1          1.2764    0.0292    2.2938 C.ar      1 <0>         0.0000
      2 C2         -0.0465   -0.2738    2.6414 C.ar      1 <0>         0.0000
      3 C3          1.6684    0.0717    0.9490 C.ar      1 <0>         0.0000
      4 C4         -1.0018   -0.5391    1.6509 C.ar      1 <0>         0.0000
      5 C5          0.7155   -0.1894   -0.0347 C.ar      1 <0>         0.0000
      6 C6         -0.6107   -0.4923    0.3137 C.ar      1 <0>         0.0000
      7 C7         -1.5500    1.9849   -3.0387 C.cat     1 <0>         0.0000
      8 C8          0.8790   -0.2373   -1.5425 C.3       1 <0>         0.0000
      9 C9         -1.4276   -0.7591   -0.9366 C.3       1 <0>         0.0000
     10 C10        -2.4349    3.6295   -4.4044 C.3       1 <0>         0.0000
     11 C11        -2.6870    2.2291   -4.9894 C.3       1 <0>         0.0000
     12 C12        -0.5765   -0.0828   -2.0367 C.3       1 <0>         0.0000
     13 N1         -1.9481    3.2670   -3.0612 N.pl3     1 <0>         0.0000
     14 N2         -0.9002    1.3720   -2.0756 N.pl3     1 <0>         0.0000
     15 O1         -1.8845    1.3316   -4.1395 O.3       1 <0>         0.0000
     16 H1          2.0043    0.2327    3.0740 H         1 <0>         0.0000
     17 H2         -0.3339   -0.3028    3.6886 H         1 <0>         0.0000
     18 H3          2.6976    0.3019    0.6845 H         1 <0>         0.0000
     19 H4         -2.0261   -0.7776    1.9266 H         1 <0>         0.0000
     20 H5          1.5482    0.5232   -1.9555 H         1 <0>         0.0000
     21 H6          1.2596   -1.2150   -1.8622 H         1 <0>         0.0000
     22 H7         -1.4861   -1.8351   -1.1432 H         1 <0>         0.0000
     23 H8         -2.4521   -0.3770   -0.9015 H         1 <0>         0.0000
     24 H9         -1.6727    4.1868   -4.9564 H         1 <0>         0.0000
     25 H10        -3.3487    4.2216   -4.3405 H         1 <0>         0.0000
     26 H11        -3.7248    1.9068   -4.8961 H         1 <0>         0.0000
     27 H12        -2.3355    2.0995   -6.0109 H         1 <0>         0.0000
     28 H13        -0.7480   -0.4772   -3.0364 H         1 <0>         0.0000
     29 H14        -1.6425    3.9519   -2.3797 H         1 <0>         0.0000
     30 H15        -0.6721    1.8991   -1.2361 H         1 <0>         0.0000
@<TRIPOS>BOND
     1    1    2 ar
     2    1    3 ar
     3    1   16 1
     4    2    4 ar
     5    2   17 1
     6    3    5 ar
     7    3   18 1
     8    4    6 ar
     9    4   19 1
    10    5    6 ar
    11    5    8 1
    12    6    9 1
    13    7   13 1
    14    7   14 2
    15    7   15 1
    16    8   12 1
    17    8   20 1
    18    8   21 1
    19    9   12 1
    20    9   22 1
    21    9   23 1
    22   10   11 1
    23   10   13 1
    24   10   24 1
    25   10   25 1
    26   11   15 1
    27   11   26 1
    28   11   27 1
    29   12   14 1
    30   12   28 1
    31   13   29 1
    32   14   30 1
