@<TRIPOS>MOLECULE
*****
   28    30     0     0     0
SMALL
NO_CHARGES

@<TRIPOS>ATOM
      1 C1         -1.2038    0.0687   -4.1284 C.ar      1 <0>         0.0000
      2 C2          0.6380    1.7615    2.5212 C.ar      1 <0>         0.0000
      3 C3          0.7836    1.2688    1.2086 C.ar      1 <0>         0.0000
      4 C4         -0.9261   -0.4553   -5.3853 C.ar      1 <0>         0.0000
      5 C5         -1.4963    0.3568    1.2257 C.ar      1 <0>         0.0000
      6 C6          1.0073   -1.5992   -4.4512 C.ar      1 <0>         0.0000
      7 C7         -0.4042   -0.2156   -3.0062 C.ar      1 <0>         0.0000
      8 C8         -0.5762    1.5419    3.1423 C.ar      1 <0>         0.0000
      9 C9         -1.6141    0.8563    2.5078 C.ar      1 <0>         0.0000
     10 C10        -0.2628    0.5908    0.5923 C.ar      1 <0>         0.0000
     11 C11         0.7015   -1.0574   -3.2050 C.ar      1 <0>         0.0000
     12 C12         0.1855   -1.2915   -5.5338 C.ar      1 <0>         0.0000
     13 C13        -0.8156    0.4136   -1.7174 C.2       1 <0>         0.0000
     14 C14        -2.3710    1.5992    4.4775 C.3       1 <0>         0.0000
     15 O1         -1.7741    1.1528   -1.6146 O.2       1 <0>         0.0000
     16 O2         -0.9646    1.8866    4.4211 O.3       1 <0>         0.0000
     17 O3         -2.6892    0.7484    3.3626 O.3       1 <0>         0.0000
     18 O4         -0.0052    0.0636   -0.6830 O.3       1 <0>         0.0000
     19 F1          1.5275   -1.3823   -2.1932 F         1 <0>         0.0000
     20 Cl1         0.5573   -1.9656   -7.1034 Cl        1 <0>         0.0000
     21 H1         -2.0586    0.7207   -3.9813 H         1 <0>         0.0000
     22 H2          1.4447    2.2868    3.0215 H         1 <0>         0.0000
     23 H3          1.7128    1.4072    0.6660 H         1 <0>         0.0000
     24 H4         -1.5557   -0.2245   -6.2378 H         1 <0>         0.0000
     25 H5         -2.3049   -0.1699    0.7338 H         1 <0>         0.0000
     26 H6          1.8722   -2.2451   -4.5556 H         1 <0>         0.0000
     27 H7         -2.5962    1.0741    5.4078 H         1 <0>         0.0000
     28 H8         -2.9380    2.5361    4.3909 H         1 <0>         0.0000
@<TRIPOS>BOND
     1    1    4 ar
     2    1    7 ar
     3    1   21 1
     4    2    3 ar
     5    2    8 ar
     6    2   22 1
     7    3   10 ar
     8    3   23 1
     9    4   12 ar
    10    4   24 1
    11    5    9 ar
    12    5   10 ar
    13    5   25 1
    14    6   11 ar
    15    6   12 ar
    16    6   26 1
    17    7   11 ar
    18    7   13 1
    19    8    9 ar
    20    8   16 1
    21    9   17 1
    22   10   18 1
    23   11   19 1
    24   12   20 1
    25   13   15 2
    26   13   18 1
    27   14   16 1
    28   14   17 1
    29   14   27 1
    30   14   28 1
