@<TRIPOS>MOLECULE
*****
   28    29     0     0     0
SMALL
NO_CHARGES

@<TRIPOS>ATOM
      1 C1          0.5329   -2.8935   -0.8842 C.ar      1 <0>         0.0000
      2 C2          0.1802   -3.0773   -2.2296 C.ar      1 <0>         0.0000
      3 C3          0.1524   -0.5195   -1.1144 C.ar      1 <0>         0.0000
      4 C4          0.5218   -1.6181   -0.3163 C.ar      1 <0>         0.0000
      5 C5         -0.2005   -0.6836   -2.4572 C.ar      1 <0>         0.0000
      6 C6         -0.1793   -1.9834   -2.9947 C.ar      1 <0>         0.0000
      7 C7         -0.6396    4.8221   -4.1527 C.3       1 <0>         0.0000
      8 C8          0.5629    4.0488   -4.6820 C.3       1 <0>         0.0000
      9 C9         -1.0177    2.5585   -3.9399 C.3       1 <0>         0.0000
     10 C10         0.8949   -1.3989    1.1327 C.3       1 <0>         0.0000
     11 C11        -0.5988    1.6433   -2.7963 C.3       1 <0>         0.0000
     12 O1         -1.3216    3.8321   -3.3720 O.3       1 <0>         0.0000
     13 O2          0.0112    2.7464   -4.9033 O.3       1 <0>         0.0000
     14 O3         -0.5707    0.3156   -3.3070 O.3       1 <0>         0.0000
     15 F1         -0.5231   -2.1528   -4.2945 F         1 <0>         0.0000
     16 H1          0.8157   -3.7541   -0.2841 H         1 <0>         0.0000
     17 H2          0.1823   -4.0615   -2.6888 H         1 <0>         0.0000
     18 H3          0.1429    0.4706   -0.6703 H         1 <0>         0.0000
     19 H4         -0.3831    5.6566   -3.4962 H         1 <0>         0.0000
     20 H5         -1.2824    5.1746   -4.9696 H         1 <0>         0.0000
     21 H6          0.9517    4.4187   -5.6330 H         1 <0>         0.0000
     22 H7          1.3744    4.0116   -3.9423 H         1 <0>         0.0000
     23 H8         -1.8844    2.1397   -4.4658 H         1 <0>         0.0000
     24 H9          1.7383   -0.7054    1.2260 H         1 <0>         0.0000
     25 H10         0.0585   -0.9728    1.6984 H         1 <0>         0.0000
     26 H11         1.1797   -2.3378    1.6149 H         1 <0>         0.0000
     27 H12        -1.3296    1.7329   -1.9827 H         1 <0>         0.0000
     28 H13         0.3896    1.9459   -2.4285 H         1 <0>         0.0000
@<TRIPOS>BOND
     1    1    2 ar
     2    1    4 ar
     3    1   16 1
     4    2    6 ar
     5    2   17 1
     6    3    4 ar
     7    3    5 ar
     8    3   18 1
     9    4   10 1
    10    5    6 ar
    11    5   14 1
    12    6   15 1
    13    7    8 1
    14    7   12 1
    15    7   19 1
    16    7   20 1
    17    8   13 1
    18    8   21 1
    19    8   22 1
    20    9   11 1
    21    9   13 1
    22    9   12 1
    23    9   23 1
    24   10   24 1
    25   10   25 1
    26   10   26 1
    27   11   14 1
    28   11   27 1
    29   11   28 1
