@<TRIPOS>MOLECULE
*****
   27    29     0     0     0
SMALL
NO_CHARGES

@<TRIPOS>ATOM
      1 C1          8.3743   -4.8421   -2.9384 C.ar      1 <0>         0.0000
      2 C2          9.1121   -5.3730   -1.8763 C.ar      1 <0>         0.0000
      3 C3          7.0994   -4.3310   -2.7046 C.ar      1 <0>         0.0000
      4 C4          3.1225   -1.5075    1.5932 C.ar      1 <0>         0.0000
      5 C5          2.3741   -0.7286    2.4651 C.ar      1 <0>         0.0000
      6 C6          8.5674   -5.4020   -0.5907 C.ar      1 <0>         0.0000
      7 C7          0.6595   -0.5124    0.7556 C.ar      1 <0>         0.0000
      8 C8          2.6703   -1.8153    0.2929 C.ar      1 <0>         0.0000
      9 C9          6.5350   -4.3379   -1.4158 C.ar      1 <0>         0.0000
     10 C10         1.1386   -0.2360    2.0344 C.ar      1 <0>         0.0000
     11 C11         1.4232   -1.2988   -0.1119 C.ar      1 <0>         0.0000
     12 C12         7.2872   -4.8910   -0.3653 C.ar      1 <0>         0.0000
     13 C13         5.1856   -3.7679   -1.2484 C.2       1 <0>         0.0000
     14 C14         3.5618   -2.6497   -0.5160 C.2       1 <0>         0.0000
     15 N1          4.8025   -2.9437   -0.2148 N.2       1 <0>         0.0000
     16 N2          4.2436   -3.9771   -2.1479 N.2       1 <0>         0.0000
     17 O1          3.1556   -3.2306   -1.6643 O.3       1 <0>         0.0000
     18 Cl1         0.1740    0.7462    3.1120 Cl        1 <0>         0.0000
     19 Cl2         0.7585   -1.5743   -1.7036 Cl        1 <0>         0.0000
     20 Br1         6.5871   -5.0529    1.4123 Br        1 <0>         0.0000
     21 H1          8.7910   -4.8212   -3.9412 H         1 <0>         0.0000
     22 H2         10.1096   -5.7705   -2.0430 H         1 <0>         0.0000
     23 H3          6.5182   -3.9078   -3.5177 H         1 <0>         0.0000
     24 H4          4.0843   -1.9035    1.9010 H         1 <0>         0.0000
     25 H5          2.7371   -0.5065    3.4629 H         1 <0>         0.0000
     26 H6          9.1274   -5.8286    0.2348 H         1 <0>         0.0000
     27 H7         -0.2966   -0.1204    0.4280 H         1 <0>         0.0000
@<TRIPOS>BOND
     1    1    2 ar
     2    1    3 ar
     3    1   21 1
     4    2    6 ar
     5    2   22 1
     6    3    9 ar
     7    3   23 1
     8    4    5 ar
     9    4    8 ar
    10    4   24 1
    11    5   10 ar
    12    5   25 1
    13    6   12 ar
    14    6   26 1
    15    7   10 ar
    16    7   11 ar
    17    7   27 1
    18    8   11 ar
    19    8   14 1
    20    9   12 ar
    21    9   13 1
    22   10   18 1
    23   11   19 1
    24   12   20 1
    25   13   15 1
    26   13   16 2
    27   14   15 2
    28   14   17 1
    29   16   17 1
