@<TRIPOS>MOLECULE
*****
   33    35     0     0     0
SMALL
NO_CHARGES

@<TRIPOS>ATOM
      1 C1         -3.6689   -2.6813   -0.3027 C.ar      1 <0>         0.0000
      2 C2         -3.3651   -1.9395   -1.4413 C.ar      1 <0>         0.0000
      3 C3         -2.7669   -2.6402    0.7643 C.ar      1 <0>         0.0000
      4 C4         -2.1881   -1.1834   -1.4884 C.ar      1 <0>         0.0000
      5 C5         -1.3510   -1.1979   -0.3549 C.ar      1 <0>         0.0000
      6 C6         -1.1760   -3.2381   -5.1391 C.3       1 <0>         0.0000
      7 C7         -0.9030   -3.4180   -3.6592 C.3       1 <0>         0.0000
      8 C8         -0.0746    1.0714   -0.3704 C.3       1 <0>         0.0000
      9 C9          0.2580    0.3563    0.9234 C.3       1 <0>         0.0000
     10 C10        -0.9421   -2.0324   -4.2617 C.3       1 <0>         0.0000
     11 C11        -0.0445   -0.4451   -0.3167 C.3       1 <0>         0.0000
     12 C12         1.1090   -1.1834   -0.9814 C.3       1 <0>         0.0000
     13 C13        -1.8888   -0.3796   -2.7431 C.3       1 <0>         0.0000
     14 N1         -1.6406   -1.9212    0.7439 N.ar      1 <0>         0.0000
     15 N2         -2.0721   -1.1848   -3.9623 N.3       1 <0>         0.0000
     16 H1         -4.5744   -3.2788   -0.2389 H         1 <0>         0.0000
     17 H2         -4.0157   -1.9539   -2.3117 H         1 <0>         0.0000
     18 H3         -2.9568   -3.2093    1.6739 H         1 <0>         0.0000
     19 H4         -0.4013   -3.5136   -5.8487 H         1 <0>         0.0000
     20 H5         -2.1942   -3.4019   -5.4786 H         1 <0>         0.0000
     21 H6         -1.7361   -3.7014   -3.0267 H         1 <0>         0.0000
     22 H7          0.0620   -3.8116   -3.3536 H         1 <0>         0.0000
     23 H8         -1.0423    1.5613   -0.4394 H         1 <0>         0.0000
     24 H9          0.7246    1.5775   -0.9068 H         1 <0>         0.0000
     25 H10         1.2874    0.3765    1.2709 H         1 <0>         0.0000
     26 H11        -0.4857    0.3516    1.7134 H         1 <0>         0.0000
     27 H12         0.0277   -1.5355   -4.3716 H         1 <0>         0.0000
     28 H13         2.0297   -0.5918   -0.9343 H         1 <0>         0.0000
     29 H14         0.8968   -1.4009   -2.0332 H         1 <0>         0.0000
     30 H15         1.2893   -2.1360   -0.4714 H         1 <0>         0.0000
     31 H16        -2.5965    0.4574   -2.7950 H         1 <0>         0.0000
     32 H17        -0.8872    0.0614   -2.6819 H         1 <0>         0.0000
     33 H18        -2.2400   -0.5642   -4.7511 H         1 <0>         0.0000
@<TRIPOS>BOND
     1    1    2 ar
     2    1    3 ar
     3    1   16 1
     4    2    4 ar
     5    2   17 1
     6    3   14 ar
     7    3   18 1
     8    4    5 ar
     9    4   13 1
    10    5   11 1
    11    5   14 ar
    12    6    7 1
    13    6   10 1
    14    6   19 1
    15    6   20 1
    16    7   10 1
    17    7   21 1
    18    7   22 1
    19    8    9 1
    20    8   11 1
    21    8   23 1
    22    8   24 1
    23    9   11 1
    24    9   25 1
    25    9   26 1
    26   10   15 1
    27   10   27 1
    28   11   12 1
    29   12   28 1
    30   12   29 1
    31   12   30 1
    32   13   15 1
    33   13   31 1
    34   13   32 1
    35   15   33 1
