@<TRIPOS>MOLECULE
*****
   62    64     0     0     0
SMALL
NO_CHARGES

@<TRIPOS>ATOM
      1 C1         -4.0567    0.8498    2.0815 C.ar      1 <0>         0.0000
      2 C2         -2.6972    1.0691    1.8691 C.ar      1 <0>         0.0000
      3 C3         -4.3214    0.2327   -0.2334 C.ar      1 <0>         0.0000
      4 C4         -2.9564    0.4529   -0.4467 C.ar      1 <0>         0.0000
      5 C5         -4.8871    0.4341    1.0288 C.ar      1 <0>         0.0000
      6 C6         -2.1317    0.8787    0.5984 C.ar      1 <0>         0.0000
      7 C7         -7.1825    1.5767    1.3345 C.3       1 <0>         0.0000
      8 C8         -0.3170    2.6846    0.2619 C.3       1 <0>         0.0000
      9 C9         -7.9856    1.3848    2.6302 C.3       1 <0>         0.0000
     10 C10         0.8531    2.8117    1.2495 C.3       1 <0>         0.0000
     11 C11        -6.3686    0.2519    1.2385 C.3       1 <0>         0.0000
     12 C12        -0.6741    1.1708    0.3492 C.3       1 <0>         0.0000
     13 C13        -7.9885   -2.5521    5.7209 C.3       1 <0>         0.0000
     14 C14        -9.1298   -2.8154    3.4711 C.3       1 <0>         0.0000
     15 C15         3.4263   -0.7897    1.5130 C.3       1 <0>         0.0000
     16 C16         2.9830   -0.7787    4.0103 C.3       1 <0>         0.0000
     17 C17        -9.5753   -0.0264    4.6538 C.3       1 <0>         0.0000
     18 C18         3.3256    2.0562    2.6390 C.3       1 <0>         0.0000
     19 C19        -8.0502   -2.0681    4.2654 C.3       1 <0>         0.0000
     20 C20         2.4574   -0.3710    2.6268 C.3       1 <0>         0.0000
     21 C21        -8.2037   -0.5302    4.1869 C.3       1 <0>         0.0000
     22 C22         2.1012    1.1342    2.5783 C.3       1 <0>         0.0000
     23 N1         -7.9878   -0.0769    2.8049 N.3       1 <0>         0.0000
     24 N2          1.3563    1.4315    1.3460 N.3       1 <0>         0.0000
     25 O1         -6.5898   -0.3982    2.4937 O.3       1 <0>         0.0000
     26 O2          0.0987    0.6815    1.4493 O.3       1 <0>         0.0000
     27 H1         -4.4838    0.9807    3.0716 H         1 <0>         0.0000
     28 H2         -2.0568    1.3723    2.6925 H         1 <0>         0.0000
     29 H3         -4.9465   -0.1098   -1.0556 H         1 <0>         0.0000
     30 H4         -2.5306    0.2800   -1.4330 H         1 <0>         0.0000
     31 H5         -7.8329    1.6896    0.4637 H         1 <0>         0.0000
     32 H6         -6.5307    2.4507    1.3911 H         1 <0>         0.0000
     33 H7         -1.1581    3.3177    0.5512 H         1 <0>         0.0000
     34 H8         -0.0225    2.9497   -0.7565 H         1 <0>         0.0000
     35 H9         -7.4891    1.8874    3.4764 H         1 <0>         0.0000
     36 H10        -9.0127    1.7472    2.5531 H         1 <0>         0.0000
     37 H11         1.6472    3.4678    0.8877 H         1 <0>         0.0000
     38 H12         0.5013    3.1778    2.2280 H         1 <0>         0.0000
     39 H13        -6.7849   -0.3723    0.4374 H         1 <0>         0.0000
     40 H14        -0.3441    0.6668   -0.5683 H         1 <0>         0.0000
     41 H15        -8.9443   -2.4207    6.2409 H         1 <0>         0.0000
     42 H16        -7.7459   -3.6196    5.7563 H         1 <0>         0.0000
     43 H17        -7.2189   -2.0176    6.2899 H         1 <0>         0.0000
     44 H18       -10.1176   -2.7136    3.9353 H         1 <0>         0.0000
     45 H19        -9.1923   -2.4364    2.4472 H         1 <0>         0.0000
     46 H20        -8.8984   -3.8854    3.4277 H         1 <0>         0.0000
     47 H21         4.4264   -0.3677    1.6662 H         1 <0>         0.0000
     48 H22         3.5320   -1.8798    1.4902 H         1 <0>         0.0000
     49 H23         3.0621   -0.4601    0.5358 H         1 <0>         0.0000
     50 H24         3.9614   -0.3352    4.2278 H         1 <0>         0.0000
     51 H25         2.2924   -0.4789    4.8071 H         1 <0>         0.0000
     52 H26         3.1021   -1.8661    4.0661 H         1 <0>         0.0000
     53 H27       -10.3560   -0.2893    3.9343 H         1 <0>         0.0000
     54 H28        -9.8343   -0.4715    5.6175 H         1 <0>         0.0000
     55 H29        -9.5820    1.0592    4.7849 H         1 <0>         0.0000
     56 H30         3.8983    2.0102    1.7081 H         1 <0>         0.0000
     57 H31         3.0377    3.0967    2.8127 H         1 <0>         0.0000
     58 H32         3.9829    1.7596    3.4599 H         1 <0>         0.0000
     59 H33        -7.0834   -2.2911    3.8046 H         1 <0>         0.0000
     60 H34         1.5146   -0.9018    2.4650 H         1 <0>         0.0000
     61 H35        -7.4248   -0.0839    4.8308 H         1 <0>         0.0000
     62 H36         1.4514    1.3514    3.4450 H         1 <0>         0.0000
@<TRIPOS>BOND
     1    1    2 ar
     2    1    5 ar
     3    1   27 1
     4    2    6 ar
     5    2   28 1
     6    3    4 ar
     7    3    5 ar
     8    3   29 1
     9    4    6 ar
    10    4   30 1
    11    5   11 1
    12    6   12 1
    13    7    9 1
    14    7   11 1
    15    7   31 1
    16    7   32 1
    17    8   10 1
    18    8   12 1
    19    8   33 1
    20    8   34 1
    21    9   23 1
    22    9   35 1
    23    9   36 1
    24   10   24 1
    25   10   37 1
    26   10   38 1
    27   11   25 1
    28   11   39 1
    29   12   26 1
    30   12   40 1
    31   13   19 1
    32   13   41 1
    33   13   42 1
    34   13   43 1
    35   14   19 1
    36   14   44 1
    37   14   45 1
    38   14   46 1
    39   15   20 1
    40   15   47 1
    41   15   48 1
    42   15   49 1
    43   16   20 1
    44   16   50 1
    45   16   51 1
    46   16   52 1
    47   17   21 1
    48   17   53 1
    49   17   54 1
    50   17   55 1
    51   18   22 1
    52   18   56 1
    53   18   57 1
    54   18   58 1
    55   19   21 1
    56   19   59 1
    57   20   22 1
    58   20   60 1
    59   21   23 1
    60   21   61 1
    61   22   24 1
    62   22   62 1
    63   23   25 1
    64   24   26 1
