@<TRIPOS>MOLECULE
*****
   15    14     0     0     0
SMALL
NO_CHARGES

@<TRIPOS>ATOM
      1 C1          3.3886   -3.7477    4.3999 C.1       1 <0>         0.0000
      2 C2          3.7805   -4.2174    0.9194 C.3       1 <0>         0.0000
      3 C3          4.2745   -1.5999    3.4456 C.3       1 <0>         0.0000
      4 C4          2.9872   -0.9428    2.9427 C.3       1 <0>         0.0000
      5 N1          4.0485   -2.7517    4.2733 N.2       1 <0>         0.0000
      6 S1          2.6143   -5.1035    4.6941 S.2       1 <0>         0.0000
      7 S2          3.1170   -2.6007    0.3562 S.3       1 <0>         0.0000
      8 S3          1.8903   -2.0280    1.9492 S.3       1 <0>         0.0000
      9 H1          4.2723   -4.6599    0.0477 H         1 <0>         0.0000
     10 H2          2.9696   -4.8685    1.2476 H         1 <0>         0.0000
     11 H3          4.5081   -4.1019    1.7242 H         1 <0>         0.0000
     12 H4          4.8452   -0.8651    4.0222 H         1 <0>         0.0000
     13 H5          4.8965   -1.8908    2.5913 H         1 <0>         0.0000
     14 H6          2.3627   -0.6247    3.7841 H         1 <0>         0.0000
     15 H7          3.2533   -0.0597    2.3550 H         1 <0>         0.0000
@<TRIPOS>BOND
     1    1    5 2
     2    1    6 2
     3    2    7 1
     4    2    9 1
     5    2   10 1
     6    2   11 1
     7    3    4 1
     8    3    5 1
     9    3   12 1
    10    3   13 1
    11    4    8 1
    12    4   14 1
    13    4   15 1
    14    7    8 1
