@<TRIPOS>MOLECULE
*****
   39    41     0     0     0
SMALL
NO_CHARGES

@<TRIPOS>ATOM
      1 C1         -0.5759   -1.5610   -0.5660 C.ar      1 <0>         0.0000
      2 C2         -1.5734   -0.8803    0.1488 C.ar      1 <0>         0.0000
      3 C3         -0.4351   -2.9487   -0.4577 C.ar      1 <0>         0.0000
      4 C4         -2.4550   -1.5718    0.9897 C.ar      1 <0>         0.0000
      5 C5         -4.3432   -9.3626    1.5473 C.2       1 <0>         0.0000
      6 C6         -1.3134   -3.6411    0.3737 C.ar      1 <0>         0.0000
      7 C7         -4.3833   -8.4102    0.4679 C.2       1 <0>         0.0000
      8 C8         -2.3000   -2.9488    1.0706 C.ar      1 <0>         0.0000
      9 C9         -5.1365  -10.4293    1.2009 C.2       1 <0>         0.0000
     10 C10        -5.2231   -8.9422   -0.5180 C.2       1 <0>         0.0000
     11 C11        -1.3287   -5.1135    0.6083 C.2       1 <0>         0.0000
     12 C12        -3.6948   -7.1272    0.4067 C.2       1 <0>         0.0000
     13 C13        -5.4458  -11.6869    1.9489 C.3       1 <0>         0.0000
     14 C14        -5.6455   -8.3787   -1.8365 C.3       1 <0>         0.0000
     15 C15        -6.6155  -11.0125   -0.7612 C.3       1 <0>         0.0000
     16 C16        -2.8617   -6.7575    1.6554 C.3       1 <0>         0.0000
     17 N1         -5.6620  -10.1619   -0.0654 N.pl3     1 <0>         0.0000
     18 N2         -2.3113   -5.4200    1.5524 N.am      1 <0>         0.0000
     19 O1         -0.5909   -5.9388    0.0977 O.2       1 <0>         0.0000
     20 O2         -3.7193   -6.3557   -0.5484 O.2       1 <0>         0.0000
     21 O3         -3.0162   -3.8403    3.4953 O.2       1 <0>         0.0000
     22 O4         -4.6377   -4.2209    1.6089 O.2       1 <0>         0.0000
     23 S1         -3.2596   -4.0741    2.0719 S.o2      1 <0>         0.0000
     24 H1          0.0945   -1.0002   -1.2110 H         1 <0>         0.0000
     25 H2         -1.6655    0.1976    0.0499 H         1 <0>         0.0000
     26 H3          0.3303   -3.4935   -1.0020 H         1 <0>         0.0000
     27 H4         -3.2278   -1.0530    1.5484 H         1 <0>         0.0000
     28 H5         -3.7876   -9.2834    2.4726 H         1 <0>         0.0000
     29 H6         -6.5210  -11.8133    2.1243 H         1 <0>         0.0000
     30 H7         -5.0874  -12.5825    1.4261 H         1 <0>         0.0000
     31 H8         -4.9531  -11.6565    2.9234 H         1 <0>         0.0000
     32 H9         -5.2719   -8.9853   -2.6715 H         1 <0>         0.0000
     33 H10        -6.7376   -8.3318   -1.9225 H         1 <0>         0.0000
     34 H11        -5.2406   -7.3734   -1.9402 H         1 <0>         0.0000
     35 H12        -7.6467  -10.7580   -0.4907 H         1 <0>         0.0000
     36 H13        -6.4978  -10.8984   -1.8395 H         1 <0>         0.0000
     37 H14        -6.4342  -12.0575   -0.5060 H         1 <0>         0.0000
     38 H15        -2.0274   -7.4575    1.7550 H         1 <0>         0.0000
     39 H16        -3.4658   -6.8280    2.5630 H         1 <0>         0.0000
@<TRIPOS>BOND
     1    1    2 ar
     2    1    3 ar
     3    1   24 1
     4    2    4 ar
     5    2   25 1
     6    3    6 ar
     7    3   26 1
     8    4    8 ar
     9    4   27 1
    10    5    7 1
    11    5    9 2
    12    5   28 1
    13    6    8 ar
    14    6   11 1
    15    7   10 2
    16    7   12 1
    17    8   23 1
    18    9   13 1
    19    9   17 1
    20   10   14 1
    21   10   17 1
    22   11   18 am
    23   11   19 2
    24   12   16 1
    25   12   20 2
    26   13   29 1
    27   13   30 1
    28   13   31 1
    29   14   32 1
    30   14   33 1
    31   14   34 1
    32   15   17 1
    33   15   35 1
    34   15   36 1
    35   15   37 1
    36   16   18 1
    37   16   38 1
    38   16   39 1
    39   18   23 1
    40   21   23 2
    41   22   23 2
