@<TRIPOS>MOLECULE
*****
   32    34     0     0     0
SMALL
NO_CHARGES

@<TRIPOS>ATOM
      1 C1          7.9008   -2.6916    5.0249 C.1       1 <0>         0.0000
      2 C2          0.4623   -2.5054    1.7168 C.ar      1 <0>         0.0000
      3 C3          0.3851   -1.4981    0.7508 C.ar      1 <0>         0.0000
      4 C4          1.6478   -2.6809    2.4271 C.ar      1 <0>         0.0000
      5 C5          1.4889   -0.6756    0.5144 C.ar      1 <0>         0.0000
      6 C6          7.3964   -1.8190    0.3794 C.2       1 <0>         0.0000
      7 C7          7.8445   -1.5858   -0.8876 C.2       1 <0>         0.0000
      8 C8          9.7110   -1.7849    0.7193 C.2       1 <0>         0.0000
      9 C9          2.7639   -1.8612    2.1818 C.ar      1 <0>         0.0000
     10 C10         8.4714   -1.9393    1.3361 C.2       1 <0>         0.0000
     11 C11         2.6935   -0.8320    1.2155 C.ar      1 <0>         0.0000
     12 C12         3.9804   -2.1128    2.9744 C.2       1 <0>         0.0000
     13 C13         6.0086   -2.3350    3.5201 C.2       1 <0>         0.0000
     14 C14         8.4471   -2.2073    2.7555 C.2       1 <0>         0.0000
     15 C15         7.4572   -2.3962    3.6859 C.2       1 <0>         0.0000
     16 C16         3.8389    0.1123    0.9272 C.3       1 <0>         0.0000
     17 N1          8.2944   -2.9274    6.0960 N.1       1 <0>         0.0000
     18 N2          5.2724   -1.9604    2.5050 N.2       1 <0>         0.0000
     19 N3          3.9197   -2.5496    4.2187 N.2       1 <0>         0.0000
     20 O1          5.2634   -2.7046    4.5863 O.3       1 <0>         0.0000
     21 S1          9.5821   -1.4994   -0.9648 S.3       1 <0>         0.0000
     22 H1         -0.3905   -3.1494    1.9129 H         1 <0>         0.0000
     23 H2         -0.5318   -1.3485    0.1867 H         1 <0>         0.0000
     24 H3          1.7270   -3.4618    3.1771 H         1 <0>         0.0000
     25 H4          1.4146    0.1163   -0.2272 H         1 <0>         0.0000
     26 H5          6.3545   -1.8996    0.6529 H         1 <0>         0.0000
     27 H6          7.2592   -1.4566   -1.7892 H         1 <0>         0.0000
     28 H7         10.6845   -1.8326    1.1921 H         1 <0>         0.0000
     29 H8          9.4447   -2.2896    3.1811 H         1 <0>         0.0000
     30 H9          4.3262    0.4587    1.8419 H         1 <0>         0.0000
     31 H10         4.6135   -0.3690    0.3231 H         1 <0>         0.0000
     32 H11         3.4780    0.9862    0.3783 H         1 <0>         0.0000
@<TRIPOS>BOND
     1    1   15 1
     2    1   17 3
     3    2    3 ar
     4    2    4 ar
     5    2   22 1
     6    3    5 ar
     7    3   23 1
     8    4    9 ar
     9    4   24 1
    10    5   11 ar
    11    5   25 1
    12    6    7 2
    13    6   10 1
    14    6   26 1
    15    7   21 1
    16    7   27 1
    17    8   10 2
    18    8   21 1
    19    8   28 1
    20    9   11 ar
    21    9   12 1
    22   10   14 1
    23   11   16 1
    24   12   18 1
    25   12   19 2
    26   13   15 1
    27   13   18 2
    28   13   20 1
    29   14   15 2
    30   14   29 1
    31   16   30 1
    32   16   31 1
    33   16   32 1
    34   19   20 1
