@<TRIPOS>MOLECULE
*****
   34    36     0     0     0
SMALL
NO_CHARGES

@<TRIPOS>ATOM
      1 C1         -4.8750   -2.5320   -0.0046 C.ar      1 <0>         0.0000
      2 C2         -4.7383   -1.7190   -1.1242 C.ar      1 <0>         0.0000
      3 C3         -3.8139   -2.5686    0.9068 C.ar      1 <0>         0.0000
      4 C4         -3.5717   -0.9595   -1.2940 C.ar      1 <0>         0.0000
      5 C5         -2.5666   -1.0415   -0.3045 C.ar      1 <0>         0.0000
      6 C6         -2.1473   -3.1060   -3.4211 C.3       1 <0>         0.0000
      7 C7         -1.1726   -2.6004   -4.4624 C.3       1 <0>         0.0000
      8 C8         -1.1482    1.1712   -0.7004 C.3       1 <0>         0.0000
      9 C9         -0.9817    0.7029    0.7258 C.3       1 <0>         0.0000
     10 C10        -2.3958   -1.7948   -4.1131 C.3       1 <0>         0.0000
     11 C11        -1.2422   -0.3171   -0.3570 C.3       1 <0>         0.0000
     12 C12        -0.0572   -1.2181   -0.6987 C.3       1 <0>         0.0000
     13 C13        -3.4417   -0.1073   -2.5271 C.3       1 <0>         0.0000
     14 N1         -2.6976   -1.8500    0.7600 N.ar      1 <0>         0.0000
     15 N2         -2.2329   -0.5164   -3.3660 N.4       1 <0>         0.0000
     16 H1         -5.7684   -3.1262    0.1590 H         1 <0>         0.0000
     17 H2         -5.5325   -1.6718   -1.8659 H         1 <0>         0.0000
     18 H3         -3.8643   -3.1998    1.7919 H         1 <0>         0.0000
     19 H4         -2.8155   -3.9213   -3.6769 H         1 <0>         0.0000
     20 H5         -1.8340   -3.0937   -2.3833 H         1 <0>         0.0000
     21 H6         -0.2060   -2.2462   -4.1139 H         1 <0>         0.0000
     22 H7         -1.1518   -3.0622   -5.4437 H         1 <0>         0.0000
     23 H8         -2.0489    1.7402   -0.9075 H         1 <0>         0.0000
     24 H9         -0.2655    1.5182   -1.2325 H         1 <0>         0.0000
     25 H10         0.0091    0.7204    1.1682 H         1 <0>         0.0000
     26 H11        -1.7901    0.9159    1.4168 H         1 <0>         0.0000
     27 H12        -3.2063   -1.7120   -4.8294 H         1 <0>         0.0000
     28 H13         0.8838   -0.6651   -0.6330 H         1 <0>         0.0000
     29 H14        -0.1059   -1.6507   -1.7089 H         1 <0>         0.0000
     30 H15        -0.0151   -2.0550    0.0035 H         1 <0>         0.0000
     31 H16        -4.3120   -0.2124   -3.1765 H         1 <0>         0.0000
     32 H17        -3.3026    0.9506   -2.3069 H         1 <0>         0.0000
     33 H18        -1.4234   -0.5620   -2.7335 H         1 <0>         0.0000
     34 H19        -2.0204    0.2309   -4.0380 H         1 <0>         0.0000
@<TRIPOS>BOND
     1    1    2 ar
     2    1    3 ar
     3    1   16 1
     4    2    4 ar
     5    2   17 1
     6    3   14 ar
     7    3   18 1
     8    4    5 ar
     9    4   13 1
    10    5   11 1
    11    5   14 ar
    12    6    7 1
    13    6   10 1
    14    6   19 1
    15    6   20 1
    16    7   10 1
    17    7   21 1
    18    7   22 1
    19    8    9 1
    20    8   11 1
    21    8   23 1
    22    8   24 1
    23    9   11 1
    24    9   25 1
    25    9   26 1
    26   10   15 1
    27   10   27 1
    28   11   12 1
    29   12   28 1
    30   12   29 1
    31   12   30 1
    32   13   15 1
    33   13   31 1
    34   13   32 1
    35   15   33 1
    36   15   34 1
