@<TRIPOS>MOLECULE
*****
   33    35     0     0     0
SMALL
NO_CHARGES

@<TRIPOS>ATOM
      1 C1         -1.1602   -1.2844   -2.1277 C.ar      1 <0>         0.0000
      2 C2         -2.0313   -0.2811   -1.6838 C.ar      1 <0>         0.0000
      3 C3          0.0935   -1.4316   -1.5362 C.ar      1 <0>         0.0000
      4 C4         -1.6312    0.5572   -0.6459 C.ar      1 <0>         0.0000
      5 C5          0.5118   -0.5938   -0.4900 C.ar      1 <0>         0.0000
      6 C6         -0.3701    0.4074   -0.0459 C.ar      1 <0>         0.0000
      7 C7         -1.1516    1.6111    3.3238 C.cat     1 <0>         0.0000
      8 C8          1.9032   -0.7525    0.0913 C.3       1 <0>         0.0000
      9 C9          2.0672   -0.0820    1.4575 C.3       1 <0>         0.0000
     10 C10         1.4976    1.3376    1.4215 C.3       1 <0>         0.0000
     11 C11        -2.3699    2.1923    5.2865 C.3       1 <0>         0.0000
     12 C12        -1.4472    3.4019    5.1263 C.3       1 <0>         0.0000
     13 C13        -0.0020    1.3205    1.1072 C.3       1 <0>         0.0000
     14 N1         -1.7956    1.1560    4.4114 N.pl3     1 <0>         0.0000
     15 N2         -0.7872    0.8591    2.3036 N.pl3     1 <0>         0.0000
     16 S1         -0.8470    3.3330    3.3799 S.3       1 <0>         0.0000
     17 H1         -1.4583   -1.9454   -2.9367 H         1 <0>         0.0000
     18 H2         -3.0048   -0.1526   -2.1479 H         1 <0>         0.0000
     19 H3          0.7669   -2.2083   -1.8911 H         1 <0>         0.0000
     20 H4         -2.2980    1.3462   -0.3019 H         1 <0>         0.0000
     21 H5          2.1585   -1.8149    0.1526 H         1 <0>         0.0000
     22 H6          2.6204   -0.3084   -0.6117 H         1 <0>         0.0000
     23 H7          1.5560   -0.6696    2.2318 H         1 <0>         0.0000
     24 H8          3.1238   -0.0543    1.7378 H         1 <0>         0.0000
     25 H9          1.6756    1.8671    2.3628 H         1 <0>         0.0000
     26 H10         1.9920    1.9168    0.6331 H         1 <0>         0.0000
     27 H11        -2.3824    1.8368    6.3184 H         1 <0>         0.0000
     28 H12        -3.3928    2.4236    4.9707 H         1 <0>         0.0000
     29 H13        -1.9717    4.3451    5.2771 H         1 <0>         0.0000
     30 H14        -0.5795    3.3495    5.7856 H         1 <0>         0.0000
     31 H15        -0.3556    2.3337    0.8906 H         1 <0>         0.0000
     32 H16        -2.1363    0.2004    4.4527 H         1 <0>         0.0000
     33 H17        -1.0767   -0.1153    2.2878 H         1 <0>         0.0000
@<TRIPOS>BOND
     1    1    2 ar
     2    1    3 ar
     3    1   17 1
     4    2    4 ar
     5    2   18 1
     6    3    5 ar
     7    3   19 1
     8    4    6 ar
     9    4   20 1
    10    5    6 ar
    11    5    8 1
    12    6   13 1
    13    7   14 1
    14    7   15 2
    15    7   16 1
    16    8    9 1
    17    8   21 1
    18    8   22 1
    19    9   10 1
    20    9   23 1
    21    9   24 1
    22   10   13 1
    23   10   25 1
    24   10   26 1
    25   11   12 1
    26   11   14 1
    27   11   27 1
    28   11   28 1
    29   12   16 1
    30   12   29 1
    31   12   30 1
    32   13   15 1
    33   13   31 1
    34   14   32 1
    35   15   33 1
