@<TRIPOS>MOLECULE
*****
   20    20     0     0     0
SMALL
NO_CHARGES

@<TRIPOS>ATOM
      1 C1          3.8685   -1.9327    3.3783 C.2       1 <0>         0.0000
      2 C2          5.0153   -1.7690    2.6473 C.2       1 <0>         0.0000
      3 C3          2.6880   -1.4450    2.7205 C.2       1 <0>         0.0000
      4 C4          2.9738   -0.9152    1.4797 C.2       1 <0>         0.0000
      5 C5          1.3221   -1.4998    3.3595 C.3       1 <0>         0.0000
      6 C6          1.5335    1.0929    0.9624 C.3       1 <0>         0.0000
      7 C7          2.0619   -0.2610    0.4652 C.3       1 <0>         0.0000
      8 N1          0.9187   -1.1493    0.1695 N.3       1 <0>         0.0000
      9 S1          4.6802   -1.0162    1.1253 S.3       1 <0>         0.0000
     10 H1          3.8534   -2.3912    4.3631 H         1 <0>         0.0000
     11 H2          6.0272   -2.0504    2.9100 H         1 <0>         0.0000
     12 H3          1.2041   -0.6958    4.0967 H         1 <0>         0.0000
     13 H4          0.5345   -1.4052    2.6112 H         1 <0>         0.0000
     14 H5          1.1842   -2.4479    3.8908 H         1 <0>         0.0000
     15 H6          0.9328    0.9624    1.8661 H         1 <0>         0.0000
     16 H7          2.3642    1.7676    1.1881 H         1 <0>         0.0000
     17 H8          0.9051    1.5655    0.1977 H         1 <0>         0.0000
     18 H9          2.6660   -0.0628   -0.4361 H         1 <0>         0.0000
     19 H10         1.2668   -2.0471   -0.1636 H         1 <0>         0.0000
     20 H11         0.3635   -0.7452   -0.5842 H         1 <0>         0.0000
@<TRIPOS>BOND
     1    1    2 2
     2    1    3 1
     3    1   10 1
     4    2    9 1
     5    2   11 1
     6    3    4 2
     7    3    5 1
     8    4    7 1
     9    4    9 1
    10    5   12 1
    11    5   13 1
    12    5   14 1
    13    6    7 1
    14    6   15 1
    15    6   16 1
    16    6   17 1
    17    7    8 1
    18    7   18 1
    19    8   19 1
    20    8   20 1
