@<TRIPOS>MOLECULE
*****
   28    30     0     0     0
SMALL
NO_CHARGES

@<TRIPOS>ATOM
      1 C1          5.0649    0.6079    0.3623 C.ar      1 <0>         0.0000
      2 C2          4.7782    1.0639   -0.9350 C.ar      1 <0>         0.0000
      3 C3          4.1525    0.8176    1.4025 C.ar      1 <0>         0.0000
      4 C4          3.5900    1.7421   -1.2330 C.ar      1 <0>         0.0000
      5 C5          2.9658    1.4930    1.1130 C.ar      1 <0>         0.0000
      6 C6          2.6987    1.9461   -0.1834 C.ar      1 <0>         0.0000
      7 C7         -0.0190    0.4269    3.0220 C.cat     1 <0>         0.0000
      8 C8         -1.6624   -0.4376    4.4023 C.3       1 <0>         0.0000
      9 C9         -1.5377    1.0870    4.5776 C.3       1 <0>         0.0000
     10 C10         1.0282    2.8263    1.0555 C.3       1 <0>         0.0000
     11 C11         1.7624    1.8101    1.9598 C.3       1 <0>         0.0000
     12 N1         -0.8045   -0.6392    3.2199 N.pl3     1 <0>         0.0000
     13 N2          0.9775    0.5479    2.1693 N.pl3     1 <0>         0.0000
     14 O1          1.4864    2.5818   -0.2913 O.3       1 <0>         0.0000
     15 O2         -0.3347    1.4461    3.8029 O.3       1 <0>         0.0000
     16 H1          6.0027    0.0982    0.5590 H         1 <0>         0.0000
     17 H2          5.5007    0.8958   -1.7286 H         1 <0>         0.0000
     18 H3          4.3721    0.4717    2.4097 H         1 <0>         0.0000
     19 H4          3.3717    2.1051   -2.2321 H         1 <0>         0.0000
     20 H5         -1.2751   -0.9949    5.2597 H         1 <0>         0.0000
     21 H6         -2.6875   -0.7476    4.1955 H         1 <0>         0.0000
     22 H7         -2.3695    1.6392    4.1388 H         1 <0>         0.0000
     23 H8         -1.3633    1.4075    5.6026 H         1 <0>         0.0000
     24 H9         -0.0586    2.7346    1.0708 H         1 <0>         0.0000
     25 H10         1.3171    3.8420    1.3455 H         1 <0>         0.0000
     26 H11         1.9829    2.2197    2.9461 H         1 <0>         0.0000
     27 H12        -0.6244   -1.5481    2.8092 H         1 <0>         0.0000
     28 H13         1.2208   -0.2421    1.5789 H         1 <0>         0.0000
@<TRIPOS>BOND
     1    1    2 ar
     2    1    3 ar
     3    1   16 1
     4    2    4 ar
     5    2   17 1
     6    3    5 ar
     7    3   18 1
     8    4    6 ar
     9    4   19 1
    10    5    6 ar
    11    5   11 1
    12    6   14 1
    13    7   12 1
    14    7   13 2
    15    7   15 1
    16    8    9 1
    17    8   12 1
    18    8   20 1
    19    8   21 1
    20    9   15 1
    21    9   22 1
    22    9   23 1
    23   10   11 1
    24   10   14 1
    25   10   24 1
    26   10   25 1
    27   11   13 1
    28   11   26 1
    29   12   27 1
    30   13   28 1
