@<TRIPOS>MOLECULE
*****
   18    19     0     0     0
SMALL
NO_CHARGES

@<TRIPOS>ATOM
      1 C1          0.3899   -0.1609    1.1183 C.1       1 <0>         0.0000
      2 C2         -1.8071   -2.7894   -1.6494 C.ar      1 <0>         0.0000
      3 C3          0.4968   -3.0081   -2.2372 C.ar      1 <0>         0.0000
      4 C4         -0.8015   -3.5189   -2.2859 C.ar      1 <0>         0.0000
      5 C5         -0.2605   -1.2345   -1.0154 C.ar      1 <0>         0.0000
      6 C6          0.7457    1.1754   -1.0131 C.3       1 <0>         0.0000
      7 C7         -0.7047    1.3114   -0.6392 C.3       1 <0>         0.0000
      8 C8          0.0501    0.0412   -0.2738 C.3       1 <0>         0.0000
      9 N1          0.6640   -0.3175    2.2394 N.1       1 <0>         0.0000
     10 N2         -1.5363   -1.6449   -1.0136 N.ar      1 <0>         0.0000
     11 N3          0.7676   -1.8636   -1.6014 N.ar      1 <0>         0.0000
     12 Br1        -1.1878   -5.1477   -3.1942 Br        1 <0>         0.0000
     13 H1         -2.8410   -3.1286   -1.6513 H         1 <0>         0.0000
     14 H2          1.3270   -3.5241   -2.7148 H         1 <0>         0.0000
     15 H3          1.0024    0.9707   -2.0474 H         1 <0>         0.0000
     16 H4          1.4827    1.7467   -0.4592 H         1 <0>         0.0000
     17 H5         -0.9732    1.9771    0.1739 H         1 <0>         0.0000
     18 H6         -1.4571    1.2014   -1.4133 H         1 <0>         0.0000
@<TRIPOS>BOND
     1    1    8 1
     2    1    9 3
     3    2    4 ar
     4    2   10 ar
     5    2   13 1
     6    3    4 ar
     7    3   11 ar
     8    3   14 1
     9    4   12 1
    10    5    8 1
    11    5   10 ar
    12    5   11 ar
    13    6    7 1
    14    6    8 1
    15    6   15 1
    16    6   16 1
    17    7    8 1
    18    7   17 1
    19    7   18 1
