@<TRIPOS>MOLECULE
*****
   47    50     0     0     0
SMALL
NO_CHARGES

@<TRIPOS>ATOM
      1 C1          4.9317    1.7283   -1.8505 C.1       1 <0>         0.0000
      2 C2          8.0406    1.5323   -3.8718 C.ar      1 <0>         0.0000
      3 C3          7.9595    0.2397   -4.4061 C.ar      1 <0>         0.0000
      4 C4          7.0393    1.9806   -3.0156 C.ar      1 <0>         0.0000
      5 C5          6.8951   -0.5924   -4.0720 C.ar      1 <0>         0.0000
      6 C6          4.2543   -2.1531   -3.5862 C.2       1 <0>         0.0000
      7 C7          3.1719   -2.6493   -2.7917 C.2       1 <0>         0.0000
      8 C8          5.9509    1.1512   -2.6840 C.ar      1 <0>         0.0000
      9 C9          5.8687   -0.1641   -3.2080 C.ar      1 <0>         0.0000
     10 C10         4.7774   -1.0784   -2.9056 C.2       1 <0>         0.0000
     11 C11         3.1058   -1.8563   -1.6760 C.2       1 <0>         0.0000
     12 C12         0.2646    1.7981    0.3333 C.3       1 <0>         0.0000
     13 C13         0.6029    1.4476   -1.1394 C.3       1 <0>         0.0000
     14 C14        -1.5249    0.0053    0.7057 C.3       1 <0>         0.0000
     15 C15         0.9597   -0.5063    1.0874 C.3       1 <0>         0.0000
     16 C16        -0.6581   -0.7554   -1.4614 C.3       1 <0>         0.0000
     17 C17        -0.1532    0.5556    1.1385 C.3       1 <0>         0.0000
     18 C18         0.7275   -0.0723   -1.3244 C.3       1 <0>         0.0000
     19 C19        -3.0337   -0.6049   -1.0617 C.3       1 <0>         0.0000
     20 C20         2.2222   -1.8623   -0.4722 C.3       1 <0>         0.0000
     21 N1          4.1437    2.2873   -1.1990 N.1       1 <0>         0.0000
     22 N2         -1.7230   -0.0603   -0.7407 N.3       1 <0>         0.0000
     23 N3          1.5735   -0.5849   -0.2394 N.3       1 <0>         0.0000
     24 O1          4.0807   -0.8990   -1.7376 O.3       1 <0>         0.0000
     25 H1          8.8750    2.1812   -4.1210 H         1 <0>         0.0000
     26 H2          8.7372   -0.1244   -5.0720 H         1 <0>         0.0000
     27 H3          7.0769    2.9826   -2.5996 H         1 <0>         0.0000
     28 H4          6.8616   -1.6045   -4.4634 H         1 <0>         0.0000
     29 H5          4.5768   -2.5190   -4.5519 H         1 <0>         0.0000
     30 H6          2.5151   -3.4783   -3.0206 H         1 <0>         0.0000
     31 H7          1.1458    2.2372    0.8126 H         1 <0>         0.0000
     32 H8         -0.5328    2.5472    0.3766 H         1 <0>         0.0000
     33 H9         -0.1688    1.8295   -1.8130 H         1 <0>         0.0000
     34 H10         1.5576    1.9022   -1.4117 H         1 <0>         0.0000
     35 H11        -1.6742   -0.9859    1.1813 H         1 <0>         0.0000
     36 H12        -2.3070    0.6635    1.1041 H         1 <0>         0.0000
     37 H13         1.7429   -0.2554    1.8161 H         1 <0>         0.0000
     38 H14         0.5362   -1.4786    1.3991 H         1 <0>         0.0000
     39 H15        -0.9391   -0.7528   -2.5209 H         1 <0>         0.0000
     40 H16        -0.5811   -1.8209   -1.1623 H         1 <0>         0.0000
     41 H17        -0.2673    0.8358    2.1926 H         1 <0>         0.0000
     42 H18         1.2707   -0.2666   -2.2538 H         1 <0>         0.0000
     43 H19        -3.2037   -0.5564   -2.1424 H         1 <0>         0.0000
     44 H20        -3.8119   -0.0113   -0.5698 H         1 <0>         0.0000
     45 H21        -3.1582   -1.6586   -0.7422 H         1 <0>         0.0000
     46 H22         1.5188   -2.7097   -0.5878 H         1 <0>         0.0000
     47 H23         2.8304   -2.0863    0.4143 H         1 <0>         0.0000
@<TRIPOS>BOND
     1    1    8 1
     2    1   21 3
     3    2    3 ar
     4    2    4 ar
     5    2   25 1
     6    3    5 ar
     7    3   26 1
     8    4    8 ar
     9    4   27 1
    10    5    9 ar
    11    5   28 1
    12    6    7 1
    13    6   10 2
    14    6   29 1
    15    7   11 2
    16    7   30 1
    17    8    9 ar
    18    9   10 1
    19   10   24 1
    20   11   20 1
    21   11   24 1
    22   12   13 1
    23   12   17 1
    24   12   31 1
    25   12   32 1
    26   13   18 1
    27   13   33 1
    28   13   34 1
    29   14   17 1
    30   14   22 1
    31   14   35 1
    32   14   36 1
    33   15   17 1
    34   15   23 1
    35   15   37 1
    36   15   38 1
    37   16   18 1
    38   16   22 1
    39   16   39 1
    40   16   40 1
    41   17   41 1
    42   18   23 1
    43   18   42 1
    44   19   22 1
    45   19   43 1
    46   19   44 1
    47   19   45 1
    48   20   23 1
    49   20   46 1
    50   20   47 1
