@<TRIPOS>MOLECULE
*****
   32    34     0     0     0
SMALL
NO_CHARGES

@<TRIPOS>ATOM
      1 C1          7.6675   -4.0676    2.0568 C.1       1 <0>         0.0000
      2 C2          7.4036    3.3297    4.9422 C.ar      1 <0>         0.0000
      3 C3          8.0121    4.3788    4.2479 C.ar      1 <0>         0.0000
      4 C4          4.9228   -5.9910    6.1145 C.2       1 <0>         0.0000
      5 C5          7.4617    2.0407    4.4190 C.ar      1 <0>         0.0000
      6 C6          8.6687    4.1227    3.0424 C.ar      1 <0>         0.0000
      7 C7          5.3457   -4.6723    5.8250 C.2       1 <0>         0.0000
      8 C8          5.3193   -6.8860    5.1436 C.2       1 <0>         0.0000
      9 C9          8.1224    1.7772    3.2040 C.ar      1 <0>         0.0000
     10 C10         8.7425    2.8345    2.4926 C.ar      1 <0>         0.0000
     11 C11         6.0625   -4.5672    4.6351 C.2       1 <0>         0.0000
     12 C12         8.1239    0.3791    2.7415 C.2       1 <0>         0.0000
     13 C13         7.7256   -1.6914    2.7404 C.2       1 <0>         0.0000
     14 C14         6.5889   -3.3330    4.1421 C.2       1 <0>         0.0000
     15 C15         7.3050   -3.0621    3.0075 C.2       1 <0>         0.0000
     16 C16         9.4706    2.6403    1.1854 C.3       1 <0>         0.0000
     17 N1          7.9529   -4.9021    1.2942 N.1       1 <0>         0.0000
     18 N2          7.5052   -0.6285    3.4664 N.2       1 <0>         0.0000
     19 N3          8.6945   -0.0484    1.6271 N.2       1 <0>         0.0000
     20 O1          8.4300   -1.4335    1.6226 O.3       1 <0>         0.0000
     21 S1          6.2078   -6.1408    3.8701 S.3       1 <0>         0.0000
     22 H1          6.8892    3.5138    5.8815 H         1 <0>         0.0000
     23 H2          7.9771    5.3918    4.6410 H         1 <0>         0.0000
     24 H3          4.3539   -6.2742    6.9932 H         1 <0>         0.0000
     25 H4          6.9955    1.2142    4.9435 H         1 <0>         0.0000
     26 H5          9.1397    4.9440    2.5080 H         1 <0>         0.0000
     27 H6          5.1422   -3.8121    6.4551 H         1 <0>         0.0000
     28 H7          5.1334   -7.9527    5.1108 H         1 <0>         0.0000
     29 H8          6.3859   -2.4703    4.7734 H         1 <0>         0.0000
     30 H9         10.3007    1.9354    1.2887 H         1 <0>         0.0000
     31 H10         8.8135    2.2214    0.4178 H         1 <0>         0.0000
     32 H11         9.8645    3.5946    0.8263 H         1 <0>         0.0000
@<TRIPOS>BOND
     1    1   15 1
     2    1   17 3
     3    2    3 ar
     4    2    5 ar
     5    2   22 1
     6    3    6 ar
     7    3   23 1
     8    4    7 1
     9    4    8 2
    10    4   24 1
    11    5    9 ar
    12    5   25 1
    13    6   10 ar
    14    6   26 1
    15    7   11 2
    16    7   27 1
    17    8   21 1
    18    8   28 1
    19    9   10 ar
    20    9   12 1
    21   10   16 1
    22   11   14 1
    23   11   21 1
    24   12   18 1
    25   12   19 2
    26   13   15 1
    27   13   18 2
    28   13   20 1
    29   14   15 2
    30   14   29 1
    31   16   30 1
    32   16   31 1
    33   16   32 1
    34   19   20 1
