@<TRIPOS>MOLECULE
*****
   59    61     0     0     0
SMALL
NO_CHARGES

@<TRIPOS>ATOM
      1 C1          1.3703    1.6188    0.0346 C.ar      1 <0>         0.0000
      2 C2         -2.3003   -0.8276   -3.7657 C.ar      1 <0>         0.0000
      3 C3         -0.6742   -2.5337   -3.2343 C.ar      1 <0>         0.0000
      4 C4          1.6476    2.2461    1.2529 C.ar      1 <0>         0.0000
      5 C5         -2.6484   -1.5095   -4.9303 C.ar      1 <0>         0.0000
      6 C6         -1.0136   -3.2310   -4.3937 C.ar      1 <0>         0.0000
      7 C7          0.3872    0.5087    2.3740 C.ar      1 <0>         0.0000
      8 C8         -1.2978   -1.3156   -2.9057 C.ar      1 <0>         0.0000
      9 C9          0.5961    0.4551   -0.0486 C.ar      1 <0>         0.0000
     10 C10         0.1063   -0.1110    1.1585 C.ar      1 <0>         0.0000
     11 C11         1.1495    1.6852    2.4352 C.ar      1 <0>         0.0000
     12 C12        -1.9923   -2.7041   -5.2388 C.ar      1 <0>         0.0000
     13 C13        -0.9498   -0.5792   -1.6641 C.2       1 <0>         0.0000
     14 C14         0.3142   -0.1877   -1.3618 C.2       1 <0>         0.0000
     15 C15        -0.6968   -1.3913    1.1240 C.3       1 <0>         0.0000
     16 C16        -2.0910   -0.2754   -0.7066 C.3       1 <0>         0.0000
     17 C17        -2.1046   -1.2127    0.5179 C.3       1 <0>         0.0000
     18 C18         2.1212    3.3930    3.7988 C.3       1 <0>         0.0000
     19 C19        -1.3040   -2.8464   -7.9722 C.3       1 <0>         0.0000
     20 C20         1.4974   -0.3661   -2.2887 C.3       1 <0>         0.0000
     21 C21         2.5403   -1.3596   -1.7475 C.3       1 <0>         0.0000
     22 C22         3.7475   -1.5179   -2.6769 C.3       1 <0>         0.0000
     23 C23         4.7889   -2.5037   -2.1357 C.3       1 <0>         0.0000
     24 C24         5.9867   -2.6598   -3.0615 C.3       1 <0>         0.0000
     25 O1         -2.0286   -4.9886   -6.5895 O.2       1 <0>         0.0000
     26 O2         -3.7915   -3.2026   -7.1260 O.2       1 <0>         0.0000
     27 O3          6.8958   -3.5920   -2.4630 O.3       1 <0>         0.0000
     28 O4          1.3532    2.1989    3.6876 O.3       1 <0>         0.0000
     29 S1         -2.4191   -3.5782   -6.7481 S.o2      1 <0>         0.0000
     30 H1          1.7565    2.0705   -0.8749 H         1 <0>         0.0000
     31 H2         -2.8031    0.1051   -3.5251 H         1 <0>         0.0000
     32 H3          0.0699   -2.9463   -2.5602 H         1 <0>         0.0000
     33 H4          2.2404    3.1537    1.2623 H         1 <0>         0.0000
     34 H5         -3.4296   -1.1366   -5.5862 H         1 <0>         0.0000
     35 H6         -0.5511   -4.1845   -4.6312 H         1 <0>         0.0000
     36 H7          0.0252    0.0840    3.3067 H         1 <0>         0.0000
     37 H8         -0.1516   -2.1255    0.5206 H         1 <0>         0.0000
     38 H9         -0.7799   -1.8088    2.1320 H         1 <0>         0.0000
     39 H10        -1.9950    0.7560   -0.3513 H         1 <0>         0.0000
     40 H11        -3.0528   -0.3502   -1.2216 H         1 <0>         0.0000
     41 H12        -2.4977   -2.1980    0.2411 H         1 <0>         0.0000
     42 H13        -2.7875   -0.7929    1.2661 H         1 <0>         0.0000
     43 H14         2.1586    3.6263    4.8637 H         1 <0>         0.0000
     44 H15         1.6481    4.2243    3.2614 H         1 <0>         0.0000
     45 H16         3.1417    3.2488    3.4227 H         1 <0>         0.0000
     46 H17        -1.5215   -3.3453   -8.9191 H         1 <0>         0.0000
     47 H18        -1.5098   -1.7776   -8.0446 H         1 <0>         0.0000
     48 H19        -0.2735   -3.0332   -7.6670 H         1 <0>         0.0000
     49 H20         1.9920    0.6036   -2.4298 H         1 <0>         0.0000
     50 H21         1.1643   -0.6824   -3.2801 H         1 <0>         0.0000
     51 H22         2.8769   -1.0281   -0.7584 H         1 <0>         0.0000
     52 H23         2.0663   -2.3379   -1.5956 H         1 <0>         0.0000
     53 H24         3.4028   -1.8505   -3.6659 H         1 <0>         0.0000
     54 H25         4.2150   -0.5352   -2.8297 H         1 <0>         0.0000
     55 H26         5.1472   -2.1704   -1.1543 H         1 <0>         0.0000
     56 H27         4.3327   -3.4899   -1.9868 H         1 <0>         0.0000
     57 H28         6.4745   -1.6839   -3.2100 H         1 <0>         0.0000
     58 H29         5.6537   -3.0212   -4.0468 H         1 <0>         0.0000
     59 H30         7.6567   -3.6975   -3.0544 H         1 <0>         0.0000
@<TRIPOS>BOND
     1    1    4 ar
     2    1    9 ar
     3    1   30 1
     4    2    5 ar
     5    2    8 ar
     6    2   31 1
     7    3    6 ar
     8    3    8 ar
     9    3   32 1
    10    4   11 ar
    11    4   33 1
    12    5   12 ar
    13    5   34 1
    14    6   12 ar
    15    6   35 1
    16    7   10 ar
    17    7   11 ar
    18    7   36 1
    19    8   13 1
    20    9   10 ar
    21    9   14 1
    22   10   15 1
    23   11   28 1
    24   12   29 1
    25   13   14 2
    26   13   16 1
    27   14   20 1
    28   15   17 1
    29   15   37 1
    30   15   38 1
    31   16   17 1
    32   16   39 1
    33   16   40 1
    34   17   41 1
    35   17   42 1
    36   18   28 1
    37   18   43 1
    38   18   44 1
    39   18   45 1
    40   19   29 1
    41   19   46 1
    42   19   47 1
    43   19   48 1
    44   20   21 1
    45   20   49 1
    46   20   50 1
    47   21   22 1
    48   21   51 1
    49   21   52 1
    50   22   23 1
    51   22   53 1
    52   22   54 1
    53   23   24 1
    54   23   55 1
    55   23   56 1
    56   24   27 1
    57   24   57 1
    58   24   58 1
    59   25   29 2
    60   26   29 2
    61   27   59 1
