@<TRIPOS>MOLECULE
*****
   27    27     0     0     0
SMALL
NO_CHARGES

@<TRIPOS>ATOM
      1 C1          1.9832   -0.7813   -0.1586 C.ar      1 <0>         0.0000
      2 C2          0.9072   -0.2632    0.5727 C.ar      1 <0>         0.0000
      3 C3          2.9170   -1.6522    1.8897 C.ar      1 <0>         0.0000
      4 C4          2.9964   -1.4819    0.4985 C.ar      1 <0>         0.0000
      5 C5          0.8046   -0.4247    1.9553 C.ar      1 <0>         0.0000
      6 C6          1.8349   -1.1337    2.6083 C.ar      1 <0>         0.0000
      7 C7         -0.3504    0.1326    2.7487 C.3       1 <0>         0.0000
      8 C8          3.7611   -3.4969   -0.8002 C.3       1 <0>         0.0000
      9 C9          2.6918   -1.9638    4.6882 C.3       1 <0>         0.0000
     10 C10         4.1495   -2.1085   -0.2692 C.3       1 <0>         0.0000
     11 N1          4.5257   -1.2562   -1.4110 N.3       1 <0>         0.0000
     12 O1          1.6883   -1.2584    3.9694 O.3       1 <0>         0.0000
     13 H1          2.0447   -0.6407   -1.2329 H         1 <0>         0.0000
     14 H2          0.1228    0.2837    0.0534 H         1 <0>         0.0000
     15 H3          3.7103   -2.1918    2.3973 H         1 <0>         0.0000
     16 H4         -0.8850   -0.6611    3.2818 H         1 <0>         0.0000
     17 H5         -0.0047    0.8422    3.5083 H         1 <0>         0.0000
     18 H6         -1.0586    0.6463    2.0928 H         1 <0>         0.0000
     19 H7          2.9272   -3.4081   -1.5027 H         1 <0>         0.0000
     20 H8          4.6051   -3.9668   -1.3203 H         1 <0>         0.0000
     21 H9          3.4570   -4.1535    0.0205 H         1 <0>         0.0000
     22 H10         2.3797   -1.9473    5.7337 H         1 <0>         0.0000
     23 H11         3.6705   -1.4763    4.5947 H         1 <0>         0.0000
     24 H12         2.7713   -3.0048    4.3502 H         1 <0>         0.0000
     25 H13         4.9836   -2.2443    0.4407 H         1 <0>         0.0000
     26 H14         5.3126   -1.6757   -1.9043 H         1 <0>         0.0000
     27 H15         4.8369   -0.3467   -1.0728 H         1 <0>         0.0000
@<TRIPOS>BOND
     1    1    2 ar
     2    1    4 ar
     3    1   13 1
     4    2    5 ar
     5    2   14 1
     6    3    4 ar
     7    3    6 ar
     8    3   15 1
     9    4   10 1
    10    5    6 ar
    11    5    7 1
    12    6   12 1
    13    7   16 1
    14    7   17 1
    15    7   18 1
    16    8   10 1
    17    8   19 1
    18    8   20 1
    19    8   21 1
    20    9   12 1
    21    9   22 1
    22    9   23 1
    23    9   24 1
    24   10   11 1
    25   10   25 1
    26   11   26 1
    27   11   27 1
