@<TRIPOS>MOLECULE
*****
   33    34     0     0     0
SMALL
NO_CHARGES

@<TRIPOS>ATOM
      1 C1         -7.3986   -1.9028    2.5604 C.ar      1 <0>         0.0000
      2 C2         -6.6462   -3.0637    2.3546 C.ar      1 <0>         0.0000
      3 C3         -7.0364   -0.7273    1.8884 C.ar      1 <0>         0.0000
      4 C4         -5.5420   -3.0407    1.4956 C.ar      1 <0>         0.0000
      5 C5         -5.9359   -0.7076    1.0298 C.ar      1 <0>         0.0000
      6 C6         -5.1636   -1.8663    0.8269 C.ar      1 <0>         0.0000
      7 C7         -4.5746   -1.7623   -1.6632 C.2       1 <0>         0.0000
      8 C8         -3.0047   -0.7872    0.0708 C.2       1 <0>         0.0000
      9 C9         -2.0942    2.0788   -1.7231 C.3       1 <0>         0.0000
     10 C10        -0.6068    2.2284   -1.9934 C.3       1 <0>         0.0000
     11 C11        -1.2542    0.8540   -1.9739 C.3       1 <0>         0.0000
     12 C12        -1.4585    0.1098   -3.2806 C.3       1 <0>         0.0000
     13 C13        -0.9068   -0.0221   -0.7886 C.3       1 <0>         0.0000
     14 C14        -4.0114   -1.8817   -0.1340 C.3       1 <0>         0.0000
     15 O1         -4.5972   -0.5932   -2.1185 O.co2     1 <0>         0.0000
     16 O2         -4.9141   -2.8573   -2.1537 O.co2     1 <0>         0.0000
     17 O3         -3.1282    0.2392    0.7180 O.2       1 <0>         0.0000
     18 O4         -1.8573   -1.0901   -0.6138 O.3       1 <0>         0.0000
     19 H1         -8.2584   -1.9142    3.2277 H         1 <0>         0.0000
     20 H2         -6.9200   -3.9886    2.8595 H         1 <0>         0.0000
     21 H3         -7.6224    0.1792    2.0307 H         1 <0>         0.0000
     22 H4         -4.9683   -3.9498    1.3289 H         1 <0>         0.0000
     23 H5         -5.6664    0.1979    0.4982 H         1 <0>         0.0000
     24 H6         -2.4571    2.2356   -0.7136 H         1 <0>         0.0000
     25 H7         -2.7950    2.3559   -2.5047 H         1 <0>         0.0000
     26 H8         -0.2887    2.6204   -2.9570 H         1 <0>         0.0000
     27 H9          0.0357    2.5134   -1.1621 H         1 <0>         0.0000
     28 H10        -2.3540   -0.5143   -3.2149 H         1 <0>         0.0000
     29 H11        -0.5917   -0.5226   -3.5164 H         1 <0>         0.0000
     30 H12        -1.5979    0.8147   -4.1084 H         1 <0>         0.0000
     31 H13        -0.8399    0.5665    0.1310 H         1 <0>         0.0000
     32 H14         0.0473   -0.5328   -0.9609 H         1 <0>         0.0000
     33 H15        -3.4934   -2.8413   -0.0930 H         1 <0>         0.0000
@<TRIPOS>BOND
     1    1    3 ar
     2    1    2 ar
     3    1   19 1
     4    2    4 ar
     5    2   20 1
     6    3    5 ar
     7    3   21 1
     8    4    6 ar
     9    4   22 1
    10    5    6 ar
    11    5   23 1
    12    6   14 1
    13    7   14 1
    14    7   15 1
    15    7   16 2
    16    8   14 1
    17    8   17 2
    18    8   18 1
    19    9   10 1
    20    9   11 1
    21    9   24 1
    22    9   25 1
    23   10   11 1
    24   10   26 1
    25   10   27 1
    26   11   12 1
    27   11   13 1
    28   12   28 1
    29   12   29 1
    30   12   30 1
    31   13   18 1
    32   13   31 1
    33   13   32 1
    34   14   33 1
