@<TRIPOS>MOLECULE
*****
   27    27     0     0     0
SMALL
NO_CHARGES

@<TRIPOS>ATOM
      1 C1          0.8242    0.9427   -0.0228 C.2       1 <0>         0.0000
      2 C2          0.2324   -0.1134   -0.6285 C.2       1 <0>         0.0000
      3 C3          1.3984    2.1066   -0.7131 C.2       1 <0>         0.0000
      4 C4          0.2168   -0.8976    1.6862 C.3       1 <0>         0.0000
      5 C5         -0.3823   -1.1507    0.2863 C.3       1 <0>         0.0000
      6 C6         -2.5529    0.2348    0.6316 C.3       1 <0>         0.0000
      7 C7          3.9051    4.0021   -0.6818 C.3       1 <0>         0.0000
      8 C8         -1.9298   -1.1085    0.2371 C.3       1 <0>         0.0000
      9 C9          2.4350    4.2283   -0.3564 C.3       1 <0>         0.0000
     10 O1          1.4803    2.2475   -1.9216 O.2       1 <0>         0.0000
     11 O2          0.0919   -0.2402   -1.9726 O.3       1 <0>         0.0000
     12 O3          1.8253    3.0325    0.1892 O.3       1 <0>         0.0000
     13 S1          0.8017    0.8531    1.7657 S.3       1 <0>         0.0000
     14 H1         -0.5129   -1.0653    2.4815 H         1 <0>         0.0000
     15 H2          1.0760   -1.5502    1.8583 H         1 <0>         0.0000
     16 H3         -0.0732   -2.1511   -0.0492 H         1 <0>         0.0000
     17 H4         -2.2936    0.5153    1.6560 H         1 <0>         0.0000
     18 H5         -3.6440    0.1809    0.5614 H         1 <0>         0.0000
     19 H6         -2.2113    1.0399   -0.0254 H         1 <0>         0.0000
     20 H7          4.4480    3.6567    0.2033 H         1 <0>         0.0000
     21 H8          4.0152    3.2623   -1.4782 H         1 <0>         0.0000
     22 H9          4.3565    4.9419   -1.0191 H         1 <0>         0.0000
     23 H10        -2.2614   -1.3772   -0.7750 H         1 <0>         0.0000
     24 H11        -2.3032   -1.9030    0.8943 H         1 <0>         0.0000
     25 H12         1.8759    4.5387   -1.2420 H         1 <0>         0.0000
     26 H13         2.3110    4.9749    0.4310 H         1 <0>         0.0000
     27 H14        -0.3259   -1.0958   -2.1614 H         1 <0>         0.0000
@<TRIPOS>BOND
     1    1    2 2
     2    1    3 1
     3    1   13 1
     4    2    5 1
     5    2   11 1
     6    3   10 2
     7    3   12 1
     8    4    5 1
     9    4   13 1
    10    4   14 1
    11    4   15 1
    12    5    8 1
    13    5   16 1
    14    6    8 1
    15    6   17 1
    16    6   18 1
    17    6   19 1
    18    7    9 1
    19    7   20 1
    20    7   21 1
    21    7   22 1
    22    8   23 1
    23    8   24 1
    24    9   12 1
    25    9   25 1
    26    9   26 1
    27   11   27 1
