@<TRIPOS>MOLECULE
*****
   20    20     0     0     0
SMALL
NO_CHARGES

@<TRIPOS>ATOM
      1 C1          3.3351   -0.7037    5.5303 C.2       1 <0>         0.0000
      2 C2          3.0569    0.6828    5.5935 C.2       1 <0>         0.0000
      3 C3          2.6017    1.0566    4.3285 C.2       1 <0>         0.0000
      4 C4          0.8263   -0.2401    1.9038 C.2       1 <0>         0.0000
      5 C5          2.2055    2.3815    3.7558 C.3       1 <0>         0.0000
      6 C6          0.4242   -0.7810    0.5478 C.3       1 <0>         0.0000
      7 C7          2.3324   -0.2785    2.1977 C.3       1 <0>         0.0000
      8 N1          3.1103   -1.1674    4.3014 N.2       1 <0>         0.0000
      9 N2          2.6688   -0.0902    3.5876 N.pl3     1 <0>         0.0000
     10 O1          0.0264    0.2034    2.7050 O.2       1 <0>         0.0000
     11 I1          2.6620    1.8229    7.4143 I         1 <0>         0.0000
     12 H1          3.6899   -1.3634    6.3109 H         1 <0>         0.0000
     13 H2          2.7108    2.5576    2.7994 H         1 <0>         0.0000
     14 H3          1.1251    2.4334    3.5909 H         1 <0>         0.0000
     15 H4          2.4948    3.1825    4.4378 H         1 <0>         0.0000
     16 H5          0.4659   -1.8766    0.5765 H         1 <0>         0.0000
     17 H6         -0.5940   -0.4715    0.3083 H         1 <0>         0.0000
     18 H7          1.1146   -0.4529   -0.2367 H         1 <0>         0.0000
     19 H8          2.8125    0.4876    1.5750 H         1 <0>         0.0000
     20 H9          2.7471   -1.2435    1.8970 H         1 <0>         0.0000
@<TRIPOS>BOND
     1    1    2 1
     2    1    8 2
     3    1   12 1
     4    2    3 2
     5    2   11 1
     6    3    5 1
     7    3    9 1
     8    4    6 1
     9    4    7 1
    10    4   10 2
    11    5   13 1
    12    5   14 1
    13    5   15 1
    14    6   16 1
    15    6   17 1
    16    6   18 1
    17    7    9 1
    18    7   19 1
    19    7   20 1
    20    8    9 1
