@<TRIPOS>MOLECULE
*****
   59    61     0     0     0
SMALL
NO_CHARGES

@<TRIPOS>ATOM
      1 C1          2.3198    0.0202   -0.7077 C.ar      1 <0>         0.0000
      2 C2         -1.6241    0.7070    3.3066 C.ar      1 <0>         0.0000
      3 C3         -2.0698    2.7075    2.0263 C.ar      1 <0>         0.0000
      4 C4          2.8760   -0.6105   -1.8130 C.ar      1 <0>         0.0000
      5 C5         -2.2747    1.2574    4.4107 C.ar      1 <0>         0.0000
      6 C6         -2.7171    3.2748    3.1227 C.ar      1 <0>         0.0000
      7 C7          0.8853   -1.9752   -2.0039 C.ar      1 <0>         0.0000
      8 C8         -1.5027    1.4210    2.1002 C.ar      1 <0>         0.0000
      9 C9          1.0374   -0.3094   -0.2295 C.ar      1 <0>         0.0000
     10 C10         0.3227   -1.3326   -0.8913 C.ar      1 <0>         0.0000
     11 C11         2.1557   -1.6186   -2.4718 C.ar      1 <0>         0.0000
     12 C12        -2.8202    2.5382    4.3058 C.ar      1 <0>         0.0000
     13 C13        -0.8192    0.8291    0.9222 C.2       1 <0>         0.0000
     14 C14         0.4614    0.3806    0.9568 C.2       1 <0>         0.0000
     15 C15        -1.0400   -1.7558   -0.3897 C.3       1 <0>         0.0000
     16 C16        -1.6293    0.7297   -0.3601 C.3       1 <0>         0.0000
     17 C17        -2.1386   -0.6999   -0.6336 C.3       1 <0>         0.0000
     18 C18         2.0815   -3.2178   -4.2512 C.3       1 <0>         0.0000
     19 C19        -5.3883    2.7419    5.4632 C.3       1 <0>         0.0000
     20 C20         1.3733    0.5358    2.1548 C.3       1 <0>         0.0000
     21 C21         1.7469   -0.8056    2.8092 C.3       1 <0>         0.0000
     22 C22         2.6821   -0.6358    4.0105 C.3       1 <0>         0.0000
     23 C23         3.0546   -1.9668    4.6738 C.3       1 <0>         0.0000
     24 C24         3.9889   -1.7894    5.8703 C.3       1 <0>         0.0000
     25 O1         -3.1878    2.5760    6.9334 O.2       1 <0>         0.0000
     26 O2         -3.6239    4.7172    5.5878 O.2       1 <0>         0.0000
     27 O3          4.3029   -3.0230    6.5259 O.3       1 <0>         0.0000
     28 O4          2.7762   -2.1924   -3.5485 O.3       1 <0>         0.0000
     29 S1         -3.6702    3.2517    5.7177 S.o2      1 <0>         0.0000
     30 H1          2.8894    0.8040   -0.2166 H         1 <0>         0.0000
     31 H2         -1.2041   -0.2916    3.3751 H         1 <0>         0.0000
     32 H3         -1.9717    3.2823    1.1093 H         1 <0>         0.0000
     33 H4          3.8602   -0.3401   -2.1841 H         1 <0>         0.0000
     34 H5         -2.3475    0.7136    5.3480 H         1 <0>         0.0000
     35 H6         -3.1153    4.2843    3.0785 H         1 <0>         0.0000
     36 H7          0.3171   -2.7621   -2.4886 H         1 <0>         0.0000
     37 H8         -1.3326   -2.7044   -0.8506 H         1 <0>         0.0000
     38 H9         -0.9708   -1.9360    0.6888 H         1 <0>         0.0000
     39 H10        -2.4829    1.4130   -0.3260 H         1 <0>         0.0000
     40 H11        -1.0024    1.0388   -1.2030 H         1 <0>         0.0000
     41 H12        -2.4897   -0.7501   -1.6713 H         1 <0>         0.0000
     42 H13        -2.9977   -0.9308    0.0076 H         1 <0>         0.0000
     43 H14         2.7430   -3.5248   -5.0624 H         1 <0>         0.0000
     44 H15         1.1389   -2.8464   -4.6721 H         1 <0>         0.0000
     45 H16         1.8776   -4.0795   -3.6035 H         1 <0>         0.0000
     46 H17        -5.9557    3.1532    6.3010 H         1 <0>         0.0000
     47 H18        -5.7436    3.1555    4.5185 H         1 <0>         0.0000
     48 H19        -5.4375    1.6522    5.4636 H         1 <0>         0.0000
     49 H20         0.9204    1.1958    2.8984 H         1 <0>         0.0000
     50 H21         2.3004    1.0300    1.8373 H         1 <0>         0.0000
     51 H22         0.8323   -1.3212    3.1296 H         1 <0>         0.0000
     52 H23         2.2171   -1.4557    2.0619 H         1 <0>         0.0000
     53 H24         3.5952   -0.1178    3.6863 H         1 <0>         0.0000
     54 H25         2.2058    0.0200    4.7518 H         1 <0>         0.0000
     55 H26         2.1501   -2.4873    5.0113 H         1 <0>         0.0000
     56 H27         3.5360   -2.6209    3.9319 H         1 <0>         0.0000
     57 H28         3.5099   -1.1721    6.6360 H         1 <0>         0.0000
     58 H29         4.9090   -1.2711    5.5588 H         1 <0>         0.0000
     59 H30         4.7534   -3.5947    5.8850 H         1 <0>         0.0000
@<TRIPOS>BOND
     1    1    4 ar
     2    1    9 ar
     3    1   30 1
     4    2    5 ar
     5    2    8 ar
     6    2   31 1
     7    3    6 ar
     8    3    8 ar
     9    3   32 1
    10    4   11 ar
    11    4   33 1
    12    5   12 ar
    13    5   34 1
    14    6   12 ar
    15    6   35 1
    16    7   10 ar
    17    7   11 ar
    18    7   36 1
    19    8   13 1
    20    9   10 ar
    21    9   14 1
    22   10   15 1
    23   11   28 1
    24   12   29 1
    25   13   14 2
    26   13   16 1
    27   14   20 1
    28   15   17 1
    29   15   37 1
    30   15   38 1
    31   16   17 1
    32   16   39 1
    33   16   40 1
    34   17   41 1
    35   17   42 1
    36   18   28 1
    37   18   43 1
    38   18   44 1
    39   18   45 1
    40   19   29 1
    41   19   46 1
    42   19   47 1
    43   19   48 1
    44   20   21 1
    45   20   49 1
    46   20   50 1
    47   21   22 1
    48   21   51 1
    49   21   52 1
    50   22   23 1
    51   22   53 1
    52   22   54 1
    53   23   24 1
    54   23   55 1
    55   23   56 1
    56   24   27 1
    57   24   57 1
    58   24   58 1
    59   25   29 2
    60   26   29 2
    61   27   59 1
