@<TRIPOS>MOLECULE
*****
   76    79     0     0     0
SMALL
NO_CHARGES

@<TRIPOS>ATOM
      1 C1          2.6264   -4.2901   11.5541 C.ar      1 <0>         0.0000
      2 C2          3.9937   -4.5711   11.4466 C.ar      1 <0>         0.0000
      3 C3          1.7500   -4.8029   10.5969 C.ar      1 <0>         0.0000
      4 C4          4.4663   -5.3600   10.3973 C.ar      1 <0>         0.0000
      5 C5          2.2330   -5.5873    9.5442 C.ar      1 <0>         0.0000
      6 C6          3.7842   -4.6788    5.0783 C.ar      1 <0>         0.0000
      7 C7          2.6033   -4.5059    4.3536 C.ar      1 <0>         0.0000
      8 C8         -0.1553   -0.4554    2.8765 C.ar      1 <0>         0.0000
      9 C9         -0.4645   -2.1432    1.1837 C.ar      1 <0>         0.0000
     10 C10         1.6409   -3.3491    6.2810 C.ar      1 <0>         0.0000
     11 C11         0.1230   -1.4427    3.8355 C.ar      1 <0>         0.0000
     12 C12         3.5972   -5.8825    9.4236 C.ar      1 <0>         0.0000
     13 C13         3.9197   -4.2078    6.3832 C.ar      1 <0>         0.0000
     14 C14        -0.4493   -0.7888    1.5543 C.ar      1 <0>         0.0000
     15 C15         1.5419   -3.8687    4.9806 C.ar      1 <0>         0.0000
     16 C16         0.1029   -2.7828    3.4509 C.ar      1 <0>         0.0000
     17 C17        -0.1883   -3.1444    2.1195 C.ar      1 <0>         0.0000
     18 C18         2.8618   -3.4822    6.9743 C.ar      1 <0>         0.0000
     19 C19         0.3674   -2.8206    6.8746 C.2       1 <0>         0.0000
     20 C20         0.4858   -1.0168    5.2393 C.3       1 <0>         0.0000
     21 C21        -0.7676    0.2759    0.5294 C.3       1 <0>         0.0000
     22 C22        -0.4303   -8.5689   -0.8139 C.3       1 <0>         0.0000
     23 C23        -2.0299   -6.7263   -1.4629 C.3       1 <0>         0.0000
     24 C24         3.0601   -7.1916    7.2994 C.3       1 <0>         0.0000
     25 C25         4.7595   -8.0357    8.8976 C.3       1 <0>         0.0000
     26 C26         2.3566   -1.8957    8.7575 C.3       1 <0>         0.0000
     27 C27        -0.4346   -6.4287    0.5130 C.3       1 <0>         0.0000
     28 C28         5.3115   -6.0168    7.5321 C.3       1 <0>         0.0000
     29 C29        -0.5065   -4.9086    0.5266 C.3       1 <0>         0.0000
     30 C30         5.1686   -4.5216    7.1719 C.3       1 <0>         0.0000
     31 C31        -0.6458   -7.0501   -0.8786 C.3       1 <0>         0.0000
     32 C32         4.1572   -6.7464    8.2868 C.3       1 <0>         0.0000
     33 O1         -0.1768   -3.3255    7.8339 O.2       1 <0>         0.0000
     34 O2          0.2967   -3.8098    4.3625 O.3       1 <0>         0.0000
     35 O3         -0.2074   -1.7411    6.2789 O.3       1 <0>         0.0000
     36 O4          6.2941   -4.1269    6.3562 O.3       1 <0>         0.0000
     37 O5          3.1341   -2.9532    8.1966 O.3       1 <0>         0.0000
     38 O6         -0.1585   -4.4787    1.8479 O.3       1 <0>         0.0000
     39 H1          2.2537   -3.6764   12.3706 H         1 <0>         0.0000
     40 H2          4.6913   -4.1766   12.1819 H         1 <0>         0.0000
     41 H3          0.6871   -4.5823   10.6481 H         1 <0>         0.0000
     42 H4          5.5328   -5.5644   10.3357 H         1 <0>         0.0000
     43 H5          1.5236   -5.9401    8.8052 H         1 <0>         0.0000
     44 H6          4.6232   -5.2026    4.6303 H         1 <0>         0.0000
     45 H7          2.4751   -4.8932    3.3481 H         1 <0>         0.0000
     46 H8         -0.1484    0.5898    3.1776 H         1 <0>         0.0000
     47 H9         -0.6909   -2.4050    0.1557 H         1 <0>         0.0000
     48 H10         1.5658   -1.0901    5.3980 H         1 <0>         0.0000
     49 H11         0.1925    0.0241    5.3876 H         1 <0>         0.0000
     50 H12        -0.1341    0.1750   -0.3586 H         1 <0>         0.0000
     51 H13        -1.8096    0.2049    0.1967 H         1 <0>         0.0000
     52 H14        -0.6160    1.2789    0.9371 H         1 <0>         0.0000
     53 H15        -1.1685   -9.0392   -0.1531 H         1 <0>         0.0000
     54 H16         0.5658   -8.8152   -0.4299 H         1 <0>         0.0000
     55 H17        -0.5318   -9.0248   -1.8047 H         1 <0>         0.0000
     56 H18        -2.8255   -7.0697   -0.7901 H         1 <0>         0.0000
     57 H19        -2.1716   -7.2255   -2.4275 H         1 <0>         0.0000
     58 H20        -2.1716   -5.6531   -1.6268 H         1 <0>         0.0000
     59 H21         3.5083   -7.7759    6.4891 H         1 <0>         0.0000
     60 H22         2.5238   -6.3586    6.8451 H         1 <0>         0.0000
     61 H23         2.3275   -7.8326    7.8002 H         1 <0>         0.0000
     62 H24         5.1898   -8.6680    8.1119 H         1 <0>         0.0000
     63 H25         5.5489   -7.8115    9.6212 H         1 <0>         0.0000
     64 H26         3.9856   -8.6117    9.4149 H         1 <0>         0.0000
     65 H27         2.9983   -1.4381    9.5120 H         1 <0>         0.0000
     66 H28         1.4499   -2.2777    9.2271 H         1 <0>         0.0000
     67 H29         2.1010   -1.1472    7.9978 H         1 <0>         0.0000
     68 H30         0.5486   -6.7230    0.8983 H         1 <0>         0.0000
     69 H31        -1.1784   -6.8246    1.2153 H         1 <0>         0.0000
     70 H32         6.2248   -6.0988    8.1379 H         1 <0>         0.0000
     71 H33         5.5144   -6.5653    6.6049 H         1 <0>         0.0000
     72 H34         0.1975   -4.4812   -0.2016 H         1 <0>         0.0000
     73 H35        -1.5135   -4.5503    0.2823 H         1 <0>         0.0000
     74 H36         5.1581   -3.9318    8.0901 H         1 <0>         0.0000
     75 H37         0.1142   -6.6319   -1.5545 H         1 <0>         0.0000
     76 H38         7.1006   -4.3346    6.8550 H         1 <0>         0.0000
@<TRIPOS>BOND
     1    1    3 ar
     2    1    2 ar
     3    1   39 1
     4    2    4 ar
     5    2   40 1
     6    3    5 ar
     7    3   41 1
     8    4   12 ar
     9    4   42 1
    10    5   12 ar
    11    5   43 1
    12    6    7 ar
    13    6   13 ar
    14    6   44 1
    15    7   15 ar
    16    7   45 1
    17    8   11 ar
    18    8   14 ar
    19    8   46 1
    20    9   14 ar
    21    9   17 ar
    22    9   47 1
    23   10   15 ar
    24   10   18 ar
    25   10   19 1
    26   11   16 ar
    27   11   20 1
    28   12   32 1
    29   13   18 ar
    30   13   30 1
    31   14   21 1
    32   15   34 1
    33   16   17 ar
    34   16   34 1
    35   17   38 1
    36   18   37 1
    37   19   33 2
    38   19   35 1
    39   20   35 1
    40   20   48 1
    41   20   49 1
    42   21   50 1
    43   21   51 1
    44   21   52 1
    45   22   31 1
    46   22   53 1
    47   22   54 1
    48   22   55 1
    49   23   31 1
    50   23   56 1
    51   23   57 1
    52   23   58 1
    53   24   32 1
    54   24   59 1
    55   24   60 1
    56   24   61 1
    57   25   32 1
    58   25   62 1
    59   25   63 1
    60   25   64 1
    61   26   37 1
    62   26   65 1
    63   26   66 1
    64   26   67 1
    65   27   29 1
    66   27   31 1
    67   27   68 1
    68   27   69 1
    69   28   30 1
    70   28   32 1
    71   28   70 1
    72   28   71 1
    73   29   38 1
    74   29   72 1
    75   29   73 1
    76   30   36 1
    77   30   74 1
    78   31   75 1
    79   36   76 1
