@<TRIPOS>MOLECULE
*****
   74    76     0     0     0
SMALL
NO_CHARGES

@<TRIPOS>ATOM
      1 C1          2.9300    1.5718   -1.9378 C.ar      1 <0>         0.0000
      2 C2          2.7303    0.6526   -0.9031 C.ar      1 <0>         0.0000
      3 C3          0.9314    2.7339   -1.2901 C.ar      1 <0>         0.0000
      4 C4          0.7284    1.8130   -0.2620 C.ar      1 <0>         0.0000
      5 C5          2.0412    2.6303   -2.1413 C.ar      1 <0>         0.0000
      6 C6          1.6259    0.7547   -0.0527 C.ar      1 <0>         0.0000
      7 C7          1.9851    5.0830   -2.9104 C.3       1 <0>         0.0000
      8 C8          0.0632   -0.9745    0.9510 C.3       1 <0>         0.0000
      9 C9          3.2589    5.7720   -3.3943 C.3       1 <0>         0.0000
     10 C10         0.4536   -2.1081    0.0160 C.3       1 <0>         0.0000
     11 C11         2.2265    3.5961   -3.3077 C.3       1 <0>         0.0000
     12 C12         1.4041   -0.2348    1.0953 C.3       1 <0>         0.0000
     13 C13         1.3519    3.1596   -4.4900 C.3       1 <0>         0.0000
     14 C14         1.5792    0.4594    2.4494 C.3       1 <0>         0.0000
     15 C15         5.4488    4.6178   -5.4240 C.3       1 <0>         0.0000
     16 C16         1.8878   -4.3742   -1.0048 C.3       1 <0>         0.0000
     17 C17         6.8332    4.9109   -1.7745 C.3       1 <0>         0.0000
     18 C18         6.5043    2.7565   -3.0040 C.3       1 <0>         0.0000
     19 C19         8.0294    4.5229   -3.9394 C.3       1 <0>         0.0000
     20 C20         4.9780   -2.3860    0.3446 C.3       1 <0>         0.0000
     21 C21         3.8066   -4.1963    1.6387 C.3       1 <0>         0.0000
     22 C22         4.7339   -4.6381   -0.6517 C.3       1 <0>         0.0000
     23 C23         5.5312    4.9433   -3.9238 C.3       1 <0>         0.0000
     24 C24         2.6521   -3.1797   -0.4077 C.3       1 <0>         0.0000
     25 C25         6.7185    4.2702   -3.1708 C.3       1 <0>         0.0000
     26 C26         4.0232   -3.5952    0.2386 C.3       1 <0>         0.0000
     27 N1          4.2599    4.7201   -3.1982 N.3       1 <0>         0.0000
     28 N2          1.7428   -2.5466    0.5685 N.3       1 <0>         0.0000
     29 O1          3.5838    3.5612   -3.7980 O.3       1 <0>         0.0000
     30 O2          2.3803   -1.2939    1.0413 O.3       1 <0>         0.0000
     31 H1          3.7871    1.4742   -2.5945 H         1 <0>         0.0000
     32 H2          3.4387   -0.1523   -0.7479 H         1 <0>         0.0000
     33 H3          0.2132    3.5398   -1.4258 H         1 <0>         0.0000
     34 H4         -0.1401    1.9277    0.3832 H         1 <0>         0.0000
     35 H5          1.8946    5.1805   -1.8275 H         1 <0>         0.0000
     36 H6          1.0845    5.4928   -3.3748 H         1 <0>         0.0000
     37 H7         -0.7316   -0.3470    0.5455 H         1 <0>         0.0000
     38 H8         -0.2519   -1.3734    1.9199 H         1 <0>         0.0000
     39 H9          3.1703    6.0808   -4.4481 H         1 <0>         0.0000
     40 H10         3.5303    6.6415   -2.7893 H         1 <0>         0.0000
     41 H11        -0.2558   -2.9371    0.0472 H         1 <0>         0.0000
     42 H12         0.5379   -1.7416   -1.0202 H         1 <0>         0.0000
     43 H13         1.4550    3.8677   -5.3185 H         1 <0>         0.0000
     44 H14         0.3011    3.1089   -4.1894 H         1 <0>         0.0000
     45 H15         1.6569    2.1680   -4.8369 H         1 <0>         0.0000
     46 H16         1.4482   -0.2657    3.2577 H         1 <0>         0.0000
     47 H17         0.8499    1.2661    2.5702 H         1 <0>         0.0000
     48 H18         2.5805    0.8930    2.5235 H         1 <0>         0.0000
     49 H19         5.4412    3.5419   -5.6073 H         1 <0>         0.0000
     50 H20         6.2975    5.0566   -5.9540 H         1 <0>         0.0000
     51 H21         4.5352    5.0290   -5.8617 H         1 <0>         0.0000
     52 H22         1.6261   -5.1044   -0.2328 H         1 <0>         0.0000
     53 H23         2.4889   -4.8729   -1.7650 H         1 <0>         0.0000
     54 H24         0.9662   -4.0523   -1.4940 H         1 <0>         0.0000
     55 H25         7.0658    5.9808   -1.8485 H         1 <0>         0.0000
     56 H26         5.8967    4.8007   -1.2217 H         1 <0>         0.0000
     57 H27         7.6342    4.4360   -1.1967 H         1 <0>         0.0000
     58 H28         6.3405    2.2558   -3.9636 H         1 <0>         0.0000
     59 H29         5.6415    2.5589   -2.3657 H         1 <0>         0.0000
     60 H30         7.3858    2.3026   -2.5366 H         1 <0>         0.0000
     61 H31         8.0624    3.9776   -4.8875 H         1 <0>         0.0000
     62 H32         8.8852    4.1928   -3.3405 H         1 <0>         0.0000
     63 H33         8.1696    5.5893   -4.1561 H         1 <0>         0.0000
     64 H34         5.1560   -1.9412   -0.6424 H         1 <0>         0.0000
     65 H35         4.5859   -1.6124    1.0027 H         1 <0>         0.0000
     66 H36         5.9485   -2.7144    0.7347 H         1 <0>         0.0000
     67 H37         3.1243   -5.0525    1.6099 H         1 <0>         0.0000
     68 H38         3.3857   -3.4569    2.3233 H         1 <0>         0.0000
     69 H39         4.7629   -4.5448    2.0460 H         1 <0>         0.0000
     70 H40         4.2269   -5.6072   -0.6505 H         1 <0>         0.0000
     71 H41         5.7510   -4.8029   -0.2808 H         1 <0>         0.0000
     72 H42         4.8165   -4.2952   -1.6904 H         1 <0>         0.0000
     73 H43         5.6966    6.0250   -3.8310 H         1 <0>         0.0000
     74 H44         2.8671   -2.4722   -1.2274 H         1 <0>         0.0000
@<TRIPOS>BOND
     1    1    2 ar
     2    1    5 ar
     3    1   31 1
     4    2    6 ar
     5    2   32 1
     6    3    4 ar
     7    3    5 ar
     8    3   33 1
     9    4    6 ar
    10    4   34 1
    11    5   11 1
    12    6   12 1
    13    7    9 1
    14    7   11 1
    15    7   35 1
    16    7   36 1
    17    8   10 1
    18    8   12 1
    19    8   37 1
    20    8   38 1
    21    9   27 1
    22    9   39 1
    23    9   40 1
    24   10   28 1
    25   10   41 1
    26   10   42 1
    27   11   13 1
    28   11   29 1
    29   12   14 1
    30   12   30 1
    31   13   43 1
    32   13   44 1
    33   13   45 1
    34   14   46 1
    35   14   47 1
    36   14   48 1
    37   15   23 1
    38   15   49 1
    39   15   50 1
    40   15   51 1
    41   16   24 1
    42   16   52 1
    43   16   53 1
    44   16   54 1
    45   17   25 1
    46   17   55 1
    47   17   56 1
    48   17   57 1
    49   18   25 1
    50   18   58 1
    51   18   59 1
    52   18   60 1
    53   19   25 1
    54   19   61 1
    55   19   62 1
    56   19   63 1
    57   20   26 1
    58   20   64 1
    59   20   65 1
    60   20   66 1
    61   21   26 1
    62   21   67 1
    63   21   68 1
    64   21   69 1
    65   22   26 1
    66   22   70 1
    67   22   71 1
    68   22   72 1
    69   23   25 1
    70   23   27 1
    71   23   73 1
    72   24   26 1
    73   24   28 1
    74   24   74 1
    75   27   29 1
    76   28   30 1
