@<TRIPOS>MOLECULE
*****
   24    24     0     0     0
SMALL
NO_CHARGES

@<TRIPOS>ATOM
      1 C1          0.4779   -0.4489   -0.6372 C.2       1 <0>         0.0000
      2 C2          1.3922    1.7190    0.2794 C.2       1 <0>         0.0000
      3 C3         -0.8147   -0.5698    1.4753 C.3       1 <0>         0.0000
      4 C4          1.4509    0.2007    0.3669 C.3       1 <0>         0.0000
      5 C5         -0.7618   -1.0541    0.0244 C.3       1 <0>         0.0000
      6 C6         -2.0313   -0.7720   -0.7843 C.3       1 <0>         0.0000
      7 C7         -1.5823    3.8104   -0.0784 C.3       1 <0>         0.0000
      8 C8         -0.0934    3.5742    0.0908 C.3       1 <0>         0.0000
      9 O1          0.7068   -0.4806   -1.8286 O.2       1 <0>         0.0000
     10 O2          2.3538    2.4544    0.3365 O.2       1 <0>         0.0000
     11 O3          0.1114    2.1364    0.1481 O.3       1 <0>         0.0000
     12 S1          0.9327   -0.3794    2.0297 S.3       1 <0>         0.0000
     13 H1         -1.3292    0.3907    1.5523 H         1 <0>         0.0000
     14 H2         -1.2986   -1.2888    2.1395 H         1 <0>         0.0000
     15 H3          2.4754   -0.1099    0.1623 H         1 <0>         0.0000
     16 H4         -0.5682   -2.1358    0.0317 H         1 <0>         0.0000
     17 H5         -2.2396    0.3023   -0.8048 H         1 <0>         0.0000
     18 H6         -2.8932   -1.2840   -0.3454 H         1 <0>         0.0000
     19 H7         -1.9072   -1.1157   -1.8144 H         1 <0>         0.0000
     20 H8         -1.9486    3.3475   -0.9994 H         1 <0>         0.0000
     21 H9         -2.1431    3.3992    0.7665 H         1 <0>         0.0000
     22 H10        -1.7806    4.8856   -0.1311 H         1 <0>         0.0000
     23 H11         0.2940    4.0146    1.0136 H         1 <0>         0.0000
     24 H12         0.4861    3.9724   -0.7461 H         1 <0>         0.0000
@<TRIPOS>BOND
     1    1    4 1
     2    1    5 1
     3    1    9 2
     4    2    4 1
     5    2   10 2
     6    2   11 1
     7    3    5 1
     8    3   12 1
     9    3   13 1
    10    3   14 1
    11    4   12 1
    12    4   15 1
    13    5    6 1
    14    5   16 1
    15    6   17 1
    16    6   18 1
    17    6   19 1
    18    7    8 1
    19    7   20 1
    20    7   21 1
    21    7   22 1
    22    8   11 1
    23    8   23 1
    24    8   24 1
