@<TRIPOS>MOLECULE
*****
   24    24     0     0     0
SMALL
NO_CHARGES

@<TRIPOS>ATOM
      1 C1          0.2665   -1.0172   -0.4581 C.2       1 <0>         0.0000
      2 C2          1.0913    1.1080   -1.5377 C.2       1 <0>         0.0000
      3 C3         -0.2728   -0.2294    1.7981 C.3       1 <0>         0.0000
      4 C4          1.2721    0.1497   -0.3702 C.3       1 <0>         0.0000
      5 C5         -0.8613   -0.9135    0.5616 C.3       1 <0>         0.0000
      6 C6         -2.0477   -0.1383   -0.0468 C.3       1 <0>         0.0000
      7 C7          3.5191    3.4665   -2.8932 C.3       1 <0>         0.0000
      8 C8          2.1588    2.8004   -2.8155 C.3       1 <0>         0.0000
      9 O1          0.4090   -1.9179   -1.2573 O.2       1 <0>         0.0000
     10 O2          0.0580    1.2573   -2.1591 O.2       1 <0>         0.0000
     11 O3          2.2280    1.7918   -1.7676 O.3       1 <0>         0.0000
     12 S1          0.9442    1.0391    1.2097 S.3       1 <0>         0.0000
     13 H1         -1.0310    0.2901    2.3882 H         1 <0>         0.0000
     14 H2          0.2447   -0.9463    2.4408 H         1 <0>         0.0000
     15 H3          2.2868   -0.2537   -0.3822 H         1 <0>         0.0000
     16 H4         -1.1812   -1.9324    0.7988 H         1 <0>         0.0000
     17 H5         -1.7717    0.8921   -0.2791 H         1 <0>         0.0000
     18 H6         -2.8794   -0.1314    0.6650 H         1 <0>         0.0000
     19 H7         -2.3831   -0.6142   -0.9716 H         1 <0>         0.0000
     20 H8          3.7765    3.9421   -1.9424 H         1 <0>         0.0000
     21 H9          4.2979    2.7394   -3.1406 H         1 <0>         0.0000
     22 H10         3.5058    4.2360   -3.6718 H         1 <0>         0.0000
     23 H11         1.8843    2.3064   -3.7513 H         1 <0>         0.0000
     24 H12         1.3651    3.5076   -2.5599 H         1 <0>         0.0000
@<TRIPOS>BOND
     1    1    4 1
     2    1    5 1
     3    1    9 2
     4    2    4 1
     5    2   10 2
     6    2   11 1
     7    3    5 1
     8    3   12 1
     9    3   13 1
    10    3   14 1
    11    4   12 1
    12    4   15 1
    13    5    6 1
    14    5   16 1
    15    6   17 1
    16    6   18 1
    17    6   19 1
    18    7    8 1
    19    7   20 1
    20    7   21 1
    21    7   22 1
    22    8   11 1
    23    8   23 1
    24    8   24 1
