@<TRIPOS>MOLECULE
*****
   24    24     0     0     0
SMALL
NO_CHARGES

@<TRIPOS>ATOM
      1 C1          0.9440   -0.0905   -0.5710 C.2       1 <0>         0.0000
      2 C2          1.6113    2.0533    0.5171 C.2       1 <0>         0.0000
      3 C3         -0.3500   -0.3352    1.5316 C.3       1 <0>         0.0000
      4 C4          1.8744    0.5587    0.4726 C.3       1 <0>         0.0000
      5 C5         -0.3146   -0.7044    0.0454 C.3       1 <0>         0.0000
      6 C6         -1.5730   -0.3015   -0.7321 C.3       1 <0>         0.0000
      7 C7          3.9443    4.7757    1.1639 C.3       1 <0>         0.0000
      8 C8          2.5710    4.1896    0.8978 C.3       1 <0>         0.0000
      9 O1          1.2201   -0.1203   -1.7518 O.2       1 <0>         0.0000
     10 O2          0.5063    2.5472    0.3687 O.2       1 <0>         0.0000
     11 O3          2.7329    2.7482    0.7659 O.3       1 <0>         0.0000
     12 S1          1.4065   -0.1960    2.0801 S.3       1 <0>         0.0000
     13 H1         -0.8538    0.6208    1.6900 H         1 <0>         0.0000
     14 H2         -0.8307   -1.1010    2.1436 H         1 <0>         0.0000
     15 H3          2.9197    0.3503    0.2447 H         1 <0>         0.0000
     16 H4         -0.1658   -1.7892   -0.0399 H         1 <0>         0.0000
     17 H5         -1.7299    0.7791   -0.6667 H         1 <0>         0.0000
     18 H6         -2.4548   -0.8084   -0.3280 H         1 <0>         0.0000
     19 H7         -1.4675   -0.5722   -1.7859 H         1 <0>         0.0000
     20 H8          4.3723    4.3676    2.0840 H         1 <0>         0.0000
     21 H9          4.6277    4.5614    0.3372 H         1 <0>         0.0000
     22 H10         3.8640    5.8620    1.2724 H         1 <0>         0.0000
     23 H11         2.1275    4.5727   -0.0250 H         1 <0>         0.0000
     24 H12         1.8720    4.3824    1.7162 H         1 <0>         0.0000
@<TRIPOS>BOND
     1    1    4 1
     2    1    5 1
     3    1    9 2
     4    2    4 1
     5    2   10 2
     6    2   11 1
     7    3    5 1
     8    3   12 1
     9    3   13 1
    10    3   14 1
    11    4   12 1
    12    4   15 1
    13    5    6 1
    14    5   16 1
    15    6   17 1
    16    6   18 1
    17    6   19 1
    18    7    8 1
    19    7   20 1
    20    7   21 1
    21    7   22 1
    22    8   11 1
    23    8   23 1
    24    8   24 1
