@<TRIPOS>MOLECULE
*****
   20    21     0     0     0
SMALL
NO_CHARGES

@<TRIPOS>ATOM
      1 C1          1.9729   -0.9733   -0.0927 C.ar      1 <0>         0.0000
      2 C2          1.7263   -1.1931    2.6911 C.ar      1 <0>         0.0000
      3 C3         -3.4253   -1.4418    0.6080 C.2       1 <0>         0.0000
      4 C4         -4.0837   -0.5072   -0.1606 C.2       1 <0>         0.0000
      5 C5          0.7974   -0.5258    0.5317 C.ar      1 <0>         0.0000
      6 C6          2.9880   -1.5471    0.6535 C.ar      1 <0>         0.0000
      7 C7          0.7093   -0.6342    1.9232 C.ar      1 <0>         0.0000
      8 C8          2.8619   -1.6603    2.0409 C.ar      1 <0>         0.0000
      9 C9         -1.6701   -0.3044   -0.0954 C.2       1 <0>         0.0000
     10 C10        -0.2605    0.0809   -0.3356 C.2       1 <0>         0.0000
     11 N1         -2.0646   -1.3177    0.6387 N.2       1 <0>         0.0000
     12 O1          0.0329    0.8269   -1.2648 O.2       1 <0>         0.0000
     13 F1          4.1081   -1.9998    0.0553 F         1 <0>         0.0000
     14 F2         -0.3563   -0.1270    2.5772 F         1 <0>         0.0000
     15 F3          3.8587   -2.2156    2.7507 F         1 <0>         0.0000
     16 S1         -2.9604    0.5711   -0.8945 S.3       1 <0>         0.0000
     17 H1          2.0839   -0.8757   -1.1679 H         1 <0>         0.0000
     18 H2          1.6421   -1.2531    3.7708 H         1 <0>         0.0000
     19 H3         -3.9051   -2.2376    1.1671 H         1 <0>         0.0000
     20 H4         -5.1497   -0.4086   -0.3221 H         1 <0>         0.0000
@<TRIPOS>BOND
     1    1    5 ar
     2    1    6 ar
     3    1   17 1
     4    2    7 ar
     5    2    8 ar
     6    2   18 1
     7    3    4 2
     8    3   11 1
     9    3   19 1
    10    4   16 1
    11    4   20 1
    12    5    7 ar
    13    5   10 1
    14    6    8 ar
    15    6   13 1
    16    7   14 1
    17    8   15 1
    18    9   10 1
    19    9   11 2
    20    9   16 1
    21   10   12 2
