@<TRIPOS>MOLECULE
*****
   19    19     0     0     0
SMALL
NO_CHARGES

@<TRIPOS>ATOM
      1 C1          2.1597   -0.4493    0.0683 C.ar      1 <0>         0.0000
      2 C2          1.0417    0.0521    0.7279 C.ar      1 <0>         0.0000
      3 C3          2.4290   -2.0986    1.8074 C.ar      1 <0>         0.0000
      4 C4          2.8781   -1.5381    0.5999 C.ar      1 <0>         0.0000
      5 C5          0.6156   -0.5011    1.9394 C.ar      1 <0>         0.0000
      6 C6          1.3200   -1.5849    2.4801 C.ar      1 <0>         0.0000
      7 C7          4.0470   -2.1545   -0.0817 C.2       1 <0>         0.0000
      8 C8          4.3280   -3.6231    0.1484 C.3       1 <0>         0.0000
      9 N1          4.8937   -1.5853   -0.8726 N.2       1 <0>         0.0000
     10 O1          4.6772   -0.2069   -1.0668 O.3       1 <0>         0.0000
     11 Cl1        -0.7823    0.1715    2.7354 Cl        1 <0>         0.0000
     12 Cl2         0.8360   -2.3253    3.9873 Cl        1 <0>         0.0000
     13 H1          2.4695    0.0006   -0.8644 H         1 <0>         0.0000
     14 H2          0.4876    0.8857    0.3080 H         1 <0>         0.0000
     15 H3          2.9430   -2.9430    2.2512 H         1 <0>         0.0000
     16 H4          3.4307   -4.2262   -0.0232 H         1 <0>         0.0000
     17 H5          5.1192   -3.9527   -0.5264 H         1 <0>         0.0000
     18 H6          4.6615   -3.8077    1.1755 H         1 <0>         0.0000
     19 H7          5.4269    0.0347   -1.6347 H         1 <0>         0.0000
@<TRIPOS>BOND
     1    1    2 ar
     2    1    4 ar
     3    1   13 1
     4    2    5 ar
     5    2   14 1
     6    3    4 ar
     7    3    6 ar
     8    3   15 1
     9    4    7 1
    10    5    6 ar
    11    5   11 1
    12    6   12 1
    13    7    8 1
    14    7    9 2
    15    8   16 1
    16    8   17 1
    17    8   18 1
    18    9   10 1
    19   10   19 1
