@<TRIPOS>MOLECULE
*****
   27    28     0     0     0
SMALL
NO_CHARGES

@<TRIPOS>ATOM
      1 C1          1.4281   -1.7574   -0.1079 C.ar      1 <0>         0.0000
      2 C2          6.7892   -1.4218    4.9489 C.ar      1 <0>         0.0000
      3 C3          0.6759   -0.7289    0.4678 C.ar      1 <0>         0.0000
      4 C4          7.1527   -0.1432    4.5066 C.ar      1 <0>         0.0000
      5 C5          2.5156   -2.2772    0.5906 C.ar      1 <0>         0.0000
      6 C6          5.7934   -2.1284    4.2785 C.ar      1 <0>         0.0000
      7 C7          1.0165   -0.2400    1.7310 C.ar      1 <0>         0.0000
      8 C8          6.5209    0.4214    3.3963 C.ar      1 <0>         0.0000
      9 C9          2.8839   -1.7596    1.8431 C.ar      1 <0>         0.0000
     10 C10         5.1201   -1.5731    3.1764 C.ar      1 <0>         0.0000
     11 C11         2.1225   -0.7312    2.4394 C.ar      1 <0>         0.0000
     12 C12         5.5180   -0.2997    2.7564 C.ar      1 <0>         0.0000
     13 C13         4.0704   -2.4012    2.4934 C.2       1 <0>         0.0000
     14 C14         2.4149   -0.1625    3.8120 C.3       1 <0>         0.0000
     15 O1          4.2073   -3.6216    2.4644 O.2       1 <0>         0.0000
     16 F1          4.9314    0.2679    1.6736 F         1 <0>         0.0000
     17 H1          1.1647   -2.1539   -1.0846 H         1 <0>         0.0000
     18 H2          7.2854   -1.8635    5.8082 H         1 <0>         0.0000
     19 H3         -0.1819   -0.3170   -0.0580 H         1 <0>         0.0000
     20 H4          7.9328    0.4129    5.0193 H         1 <0>         0.0000
     21 H5          3.1034   -3.0893    0.1735 H         1 <0>         0.0000
     22 H6          5.5085   -3.1278    4.5930 H         1 <0>         0.0000
     23 H7          0.4063    0.5383    2.1839 H         1 <0>         0.0000
     24 H8          6.7943    1.4013    3.0170 H         1 <0>         0.0000
     25 H9          2.7993   -0.9139    4.5052 H         1 <0>         0.0000
     26 H10         3.1541    0.6439    3.7615 H         1 <0>         0.0000
     27 H11         1.5034    0.2574    4.2465 H         1 <0>         0.0000
@<TRIPOS>BOND
     1    1    3 ar
     2    1    5 ar
     3    1   17 1
     4    2    4 ar
     5    2    6 ar
     6    2   18 1
     7    3    7 ar
     8    3   19 1
     9    4    8 ar
    10    4   20 1
    11    5    9 ar
    12    5   21 1
    13    6   10 ar
    14    6   22 1
    15    7   11 ar
    16    7   23 1
    17    8   12 ar
    18    8   24 1
    19    9   11 ar
    20    9   13 1
    21   10   12 ar
    22   10   13 1
    23   11   14 1
    24   12   16 1
    25   13   15 2
    26   14   25 1
    27   14   26 1
    28   14   27 1
