@<TRIPOS>MOLECULE
*****
   17    17     0     0     0
SMALL
NO_CHARGES

@<TRIPOS>ATOM
      1 C1          1.7528   -3.0914    1.3147 C.1       1 <0>         0.0000
      2 C2         -0.4220   -1.2435   -0.3917 C.2       1 <0>         0.0000
      3 C3         -0.4572    0.9975   -0.1786 C.2       1 <0>         0.0000
      4 C4         -1.0238   -3.6215   -0.9172 C.3       1 <0>         0.0000
      5 C5          0.0418   -2.6560   -0.4001 C.3       1 <0>         0.0000
      6 N1          2.9015   -3.1469    1.5478 N.1       1 <0>         0.0000
      7 N2         -1.7361    0.5158   -0.2968 N.2       1 <0>         0.0000
      8 N3         -1.6812   -0.8564   -0.4174 N.2       1 <0>         0.0000
      9 N4          0.3950   -0.1423   -0.2366 N.am      1 <0>         0.0000
     10 N5          0.4514   -3.0997    1.0025 N.3       1 <0>         0.0000
     11 O1         -0.0355    2.1674   -0.0487 O.2       1 <0>         0.0000
     12 H1         -1.9474   -3.5083   -0.3448 H         1 <0>         0.0000
     13 H2         -1.2560   -3.3939   -1.9612 H         1 <0>         0.0000
     14 H3         -0.6655   -4.6526   -0.8372 H         1 <0>         0.0000
     15 H4          0.9552   -2.7650   -0.9967 H         1 <0>         0.0000
     16 H5          1.4019   -0.1071   -0.1647 H         1 <0>         0.0000
     17 H6         -0.1366   -2.6627    1.7088 H         1 <0>         0.0000
@<TRIPOS>BOND
     1    1    6 3
     2    1   10 1
     3    2    5 1
     4    2    8 2
     5    2    9 1
     6    3    7 1
     7    3    9 am
     8    3   11 2
     9    4    5 1
    10    4   12 1
    11    4   13 1
    12    4   14 1
    13    5   10 1
    14    5   15 1
    15    7    8 1
    16    9   16 1
    17   10   17 1
