@<TRIPOS>MOLECULE
*****
   40    41     0     0     0
SMALL
NO_CHARGES

@<TRIPOS>ATOM
      1 C1          6.0934   -1.4981   -5.1783 C.ar      1 <0>         0.0000
      2 C2          5.4381   -0.9468   -6.2732 C.ar      1 <0>         0.0000
      3 C3          5.5014   -1.5380   -3.9019 C.ar      1 <0>         0.0000
      4 C4          3.5218   -0.4470   -4.8509 C.ar      1 <0>         0.0000
      5 C5          4.1471   -0.4286   -6.1093 C.ar      1 <0>         0.0000
      6 C6          4.2177   -0.9951   -3.7659 C.ar      1 <0>         0.0000
      7 C7          6.2849   -2.1625   -2.7300 C.2       1 <0>         0.0000
      8 C8         -0.5224   -0.5395   -2.1053 C.3       1 <0>         0.0000
      9 C9         -1.3299   -1.5509   -2.9724 C.3       1 <0>         0.0000
     10 C10        -0.1185    0.6088   -3.0593 C.3       1 <0>         0.0000
     11 C11        -1.3150   -0.9811   -4.4145 C.3       1 <0>         0.0000
     12 C12        -0.1026   -0.0299   -4.4608 C.3       1 <0>         0.0000
     13 C13         4.4876    2.7402   -6.7395 C.3       1 <0>         0.0000
     14 C14         1.1778   -0.8083   -4.7316 C.3       1 <0>         0.0000
     15 C15         3.1464    2.0679   -7.0131 C.3       1 <0>         0.0000
     16 O1          7.1367   -1.3975   -2.2182 O.co2     1 <0>         0.0000
     17 O2          5.9736   -3.3531   -2.4912 O.co2     1 <0>         0.0000
     18 O3          4.2844    0.2912   -8.6446 O.2       1 <0>         0.0000
     19 O4          1.9774   -0.2220   -7.7049 O.2       1 <0>         0.0000
     20 O5          2.2821    0.1293   -4.6998 O.3       1 <0>         0.0000
     21 S1          3.3356    0.3279   -7.5104 S.o2      1 <0>         0.0000
     22 Cl1         3.4425   -0.9614   -2.1836 Cl        1 <0>         0.0000
     23 H1          7.0970   -1.8989   -5.2913 H         1 <0>         0.0000
     24 H2          5.9025   -0.8996   -7.2532 H         1 <0>         0.0000
     25 H3         -1.1032   -0.1713   -1.2534 H         1 <0>         0.0000
     26 H4          0.3718   -1.0172   -1.6965 H         1 <0>         0.0000
     27 H5         -0.8603   -2.5390   -2.9432 H         1 <0>         0.0000
     28 H6         -2.3542   -1.6801   -2.6076 H         1 <0>         0.0000
     29 H7         -0.8750    1.4036   -3.0380 H         1 <0>         0.0000
     30 H8          0.8439    1.0548   -2.7978 H         1 <0>         0.0000
     31 H9         -1.2697   -1.7635   -5.1799 H         1 <0>         0.0000
     32 H10        -2.2271   -0.4020   -4.6008 H         1 <0>         0.0000
     33 H11        -0.2073    0.7201   -5.2525 H         1 <0>         0.0000
     34 H12         5.0027    2.2649   -5.9003 H         1 <0>         0.0000
     35 H13         5.1352    2.6883   -7.6185 H         1 <0>         0.0000
     36 H14         4.3258    3.7932   -6.4855 H         1 <0>         0.0000
     37 H15         1.1462   -1.2678   -5.7235 H         1 <0>         0.0000
     38 H16         1.3483   -1.5818   -3.9753 H         1 <0>         0.0000
     39 H17         2.6170    2.5192   -7.8583 H         1 <0>         0.0000
     40 H18         2.4906    2.0522   -6.1412 H         1 <0>         0.0000
@<TRIPOS>BOND
     1    1    2 ar
     2    1    3 ar
     3    1   23 1
     4    2    5 ar
     5    2   24 1
     6    3    6 ar
     7    3    7 1
     8    4    5 ar
     9    4    6 ar
    10    4   20 1
    11    5   21 1
    12    6   22 1
    13    7   16 1
    14    7   17 2
    15    8    9 1
    16    8   10 1
    17    8   25 1
    18    8   26 1
    19    9   11 1
    20    9   27 1
    21    9   28 1
    22   10   12 1
    23   10   29 1
    24   10   30 1
    25   11   12 1
    26   11   31 1
    27   11   32 1
    28   12   14 1
    29   12   33 1
    30   13   15 1
    31   13   34 1
    32   13   35 1
    33   13   36 1
    34   14   20 1
    35   14   37 1
    36   14   38 1
    37   15   21 1
    38   15   39 1
    39   15   40 1
    40   18   21 2
    41   19   21 2
