@<TRIPOS>MOLECULE
*****
   39    41     0     0     0
SMALL
NO_CHARGES

@<TRIPOS>ATOM
      1 C1          2.1055  -10.4802    1.9357 C.ar      1 <0>         0.0000
      2 C2          2.0337  -10.3148    3.3271 C.ar      1 <0>         0.0000
      3 C3          1.2576   -9.7657    1.0819 C.ar      1 <0>         0.0000
      4 C4          1.1115   -9.4290    3.9002 C.ar      1 <0>         0.0000
      5 C5         -3.9137   -9.1203    1.6064 C.2       1 <0>         0.0000
      6 C6          0.3375   -8.8855    1.6473 C.ar      1 <0>         0.0000
      7 C7         -3.9662   -8.2363    0.4707 C.2       1 <0>         0.0000
      8 C8          0.2825   -8.7342    3.0305 C.ar      1 <0>         0.0000
      9 C9         -4.5214  -10.2988    1.2486 C.2       1 <0>         0.0000
     10 C10        -4.6106   -8.9279   -0.5626 C.2       1 <0>         0.0000
     11 C11        -0.6453   -8.0401    0.9077 C.2       1 <0>         0.0000
     12 C12        -3.4472   -6.8778    0.3689 C.2       1 <0>         0.0000
     13 C13        -4.7657  -11.5372    2.0508 C.3       1 <0>         0.0000
     14 C14        -4.9054   -8.5134   -1.9680 C.3       1 <0>         0.0000
     15 C15        -5.6584  -11.1930   -0.8203 C.3       1 <0>         0.0000
     16 C16        -2.4557   -6.3782    1.4419 C.3       1 <0>         0.0000
     17 N1         -4.9255  -10.1759   -0.0837 N.pl3     1 <0>         0.0000
     18 N2         -1.4362   -7.3544    1.8239 N.am      1 <0>         0.0000
     19 O1         -0.7611   -7.9533   -0.3027 O.2       1 <0>         0.0000
     20 O2         -3.7753   -6.0652   -0.4938 O.2       1 <0>         0.0000
     21 O3         -2.0647   -8.1465    4.2233 O.2       1 <0>         0.0000
     22 O4         -0.3815   -6.2924    3.9626 O.2       1 <0>         0.0000
     23 S1         -0.9668   -7.5376    3.4699 S.o2      1 <0>         0.0000
     24 H1          2.8310  -11.1725    1.5181 H         1 <0>         0.0000
     25 H2          2.7024  -10.8787    3.9712 H         1 <0>         0.0000
     26 H3          1.2986   -9.8793    0.0028 H         1 <0>         0.0000
     27 H4          1.0501   -9.2933    4.9756 H         1 <0>         0.0000
     28 H5         -3.5138   -8.9083    2.5879 H         1 <0>         0.0000
     29 H6         -5.8316  -11.7879    2.1182 H         1 <0>         0.0000
     30 H7         -4.2461  -12.4120    1.6393 H         1 <0>         0.0000
     31 H8         -4.3959  -11.3827    3.0670 H         1 <0>         0.0000
     32 H9         -4.4290   -9.1840   -2.6939 H         1 <0>         0.0000
     33 H10        -5.9835   -8.5150   -2.1711 H         1 <0>         0.0000
     34 H11        -4.5337   -7.5030   -2.1290 H         1 <0>         0.0000
     35 H12        -6.7391  -11.0974   -0.6627 H         1 <0>         0.0000
     36 H13        -5.4523  -11.1026   -1.8874 H         1 <0>         0.0000
     37 H14        -5.3446  -12.1859   -0.4941 H         1 <0>         0.0000
     38 H15        -3.0246   -6.1227    2.3420 H         1 <0>         0.0000
     39 H16        -1.9909   -5.4693    1.0550 H         1 <0>         0.0000
@<TRIPOS>BOND
     1    1    2 ar
     2    1    3 ar
     3    1   24 1
     4    2    4 ar
     5    2   25 1
     6    3    6 ar
     7    3   26 1
     8    4    8 ar
     9    4   27 1
    10    5    7 1
    11    5    9 2
    12    5   28 1
    13    6    8 ar
    14    6   11 1
    15    7   10 2
    16    7   12 1
    17    8   23 1
    18    9   13 1
    19    9   17 1
    20   10   14 1
    21   10   17 1
    22   11   18 am
    23   11   19 2
    24   12   16 1
    25   12   20 2
    26   13   29 1
    27   13   30 1
    28   13   31 1
    29   14   32 1
    30   14   33 1
    31   14   34 1
    32   15   17 1
    33   15   35 1
    34   15   36 1
    35   15   37 1
    36   16   18 1
    37   16   38 1
    38   16   39 1
    39   18   23 1
    40   21   23 2
    41   22   23 2
