@<TRIPOS>MOLECULE
*****
   29    30     0     0     0
SMALL
NO_CHARGES

@<TRIPOS>ATOM
      1 C1          0.0549    5.6596    3.5387 C.ar      1 <0>         0.0000
      2 C2         -0.8133    5.0717    2.6109 C.ar      1 <0>         0.0000
      3 C3          1.3538    5.1651    3.6857 C.ar      1 <0>         0.0000
      4 C4         -0.3806    3.9967    1.8321 C.ar      1 <0>         0.0000
      5 C5          1.7825    4.0824    2.9110 C.ar      1 <0>         0.0000
      6 C6          0.9212    3.4949    1.9779 C.ar      1 <0>         0.0000
      7 C7          0.3963    0.4795    2.4091 C.cat     1 <0>         0.0000
      8 C8         -0.1710   -1.1009    3.9981 C.3       1 <0>         0.0000
      9 C9          0.7745   -0.0371    4.5833 C.3       1 <0>         0.0000
     10 C10         1.4865    2.6729   -0.3701 C.3       1 <0>         0.0000
     11 C11         1.4125    2.3432    1.1214 C.3       1 <0>         0.0000
     12 N1         -0.4997   -0.4718    2.7057 N.pl3     1 <0>         0.0000
     13 N2          0.5239    1.1427    1.2776 N.pl3     1 <0>         0.0000
     14 O1          1.2175    0.7348    3.4098 O.3       1 <0>         0.0000
     15 H1         -0.2796    6.5003    4.1397 H         1 <0>         0.0000
     16 H2         -1.8217    5.4572    2.4895 H         1 <0>         0.0000
     17 H3          2.0323    5.6195    4.4020 H         1 <0>         0.0000
     18 H4         -1.0626    3.5582    1.1061 H         1 <0>         0.0000
     19 H5          2.7923    3.6969    3.0335 H         1 <0>         0.0000
     20 H6          0.3197   -2.0664    3.8458 H         1 <0>         0.0000
     21 H7         -1.0681   -1.2354    4.6037 H         1 <0>         0.0000
     22 H8          0.2708    0.6658    5.2480 H         1 <0>         0.0000
     23 H9          1.6676   -0.4411    5.0553 H         1 <0>         0.0000
     24 H10         0.5055    2.9585   -0.7639 H         1 <0>         0.0000
     25 H11         1.8750    1.8275   -0.9465 H         1 <0>         0.0000
     26 H12         2.1550    3.5241   -0.5123 H         1 <0>         0.0000
     27 H13         2.4009    2.0346    1.4690 H         1 <0>         0.0000
     28 H14        -1.1222   -0.8877    2.0231 H         1 <0>         0.0000
     29 H15        -0.1141    0.9215    0.5207 H         1 <0>         0.0000
@<TRIPOS>BOND
     1    1    3 ar
     2    1    2 ar
     3    1   15 1
     4    2    4 ar
     5    2   16 1
     6    3    5 ar
     7    3   17 1
     8    4    6 ar
     9    4   18 1
    10    5    6 ar
    11    5   19 1
    12    6   11 1
    13    7   12 1
    14    7   13 2
    15    7   14 1
    16    8    9 1
    17    8   12 1
    18    8   20 1
    19    8   21 1
    20    9   14 1
    21    9   22 1
    22    9   23 1
    23   10   11 1
    24   10   24 1
    25   10   25 1
    26   10   26 1
    27   11   13 1
    28   11   27 1
    29   12   28 1
    30   13   29 1
