@<TRIPOS>MOLECULE
*****
   21    22     0     0     0
SMALL
NO_CHARGES

@<TRIPOS>ATOM
      1 C1          0.4222   -2.2697   -0.8988 C.ar      1 <0>         0.0000
      2 C2          1.1476   -2.9853   -3.1053 C.ar      1 <0>         0.0000
      3 C3         -0.1546   -1.1192   -1.4425 C.ar      1 <0>         0.0000
      4 C4          1.0659   -3.1847   -1.7294 C.ar      1 <0>         0.0000
      5 C5          0.5657   -1.8391   -3.6531 C.ar      1 <0>         0.0000
      6 C6         -0.0833   -0.9083   -2.8299 C.ar      1 <0>         0.0000
      7 C7         -2.4203   -0.1852   -0.4778 C.3       1 <0>         0.0000
      8 C8         -2.2568   -0.0704    1.0570 C.3       1 <0>         0.0000
      9 C9         -0.8639   -0.1381   -0.5393 C.3       1 <0>         0.0000
     10 N1         -0.8232   -0.4560    0.9107 N.3       1 <0>         0.0000
     11 Cl1         1.7896   -4.6240   -1.0343 Cl        1 <0>         0.0000
     12 Cl2         0.6726   -1.6075   -5.3810 Cl        1 <0>         0.0000
     13 Cl3        -0.8238    0.5205   -3.5203 Cl        1 <0>         0.0000
     14 H1          0.3459   -2.4265    0.1714 H         1 <0>         0.0000
     15 H2          1.6487   -3.7008   -3.7474 H         1 <0>         0.0000
     16 H3         -2.8137   -1.1531   -0.7947 H         1 <0>         0.0000
     17 H4         -2.9512    0.6158   -0.9929 H         1 <0>         0.0000
     18 H5         -2.4068    0.9565    1.4157 H         1 <0>         0.0000
     19 H6         -2.8390   -0.7565    1.6799 H         1 <0>         0.0000
     20 H7         -0.5217    0.8795   -0.7700 H         1 <0>         0.0000
     21 H8         -0.1662    0.1081    1.4461 H         1 <0>         0.0000
@<TRIPOS>BOND
     1    1    3 ar
     2    1    4 ar
     3    1   14 1
     4    2    4 ar
     5    2    5 ar
     6    2   15 1
     7    3    6 ar
     8    3    9 1
     9    4   11 1
    10    5    6 ar
    11    5   12 1
    12    6   13 1
    13    7    8 1
    14    7    9 1
    15    7   16 1
    16    7   17 1
    17    8   10 1
    18    8   18 1
    19    8   19 1
    20    9   10 1
    21    9   20 1
    22   10   21 1
