@<TRIPOS>MOLECULE
*****
   19    19     0     0     0
SMALL
NO_CHARGES

@<TRIPOS>ATOM
      1 C1          2.2553   -0.5210    0.1055 C.ar      1 <0>         0.0000
      2 C2          1.2185    0.1182    0.7787 C.ar      1 <0>         0.0000
      3 C3          2.4314   -2.1330    1.8908 C.ar      1 <0>         0.0000
      4 C4          2.8748   -1.6655    0.6416 C.ar      1 <0>         0.0000
      5 C5          0.7853   -0.3547    2.0203 C.ar      1 <0>         0.0000
      6 C6          1.4061   -1.4821    2.5770 C.ar      1 <0>         0.0000
      7 C7          3.9998   -2.2972   -0.0974 C.2       1 <0>         0.0000
      8 C8          4.8436   -1.4288   -1.0042 C.3       1 <0>         0.0000
      9 N1          4.3690   -3.5340   -0.0762 N.2       1 <0>         0.0000
     10 O1          3.5709   -4.3668    0.7315 O.3       1 <0>         0.0000
     11 Cl1        -0.5102    0.4777    2.8384 Cl        1 <0>         0.0000
     12 Cl2         0.9172   -2.1071    4.1341 Cl        1 <0>         0.0000
     13 H1          2.5721   -0.1223   -0.8518 H         1 <0>         0.0000
     14 H2          0.7389    0.9922    0.3498 H         1 <0>         0.0000
     15 H3          2.8885   -3.0024    2.3417 H         1 <0>         0.0000
     16 H4          5.1954   -0.5365   -0.4766 H         1 <0>         0.0000
     17 H5          5.7023   -2.0001   -1.3598 H         1 <0>         0.0000
     18 H6          4.2737   -1.0952   -1.8784 H         1 <0>         0.0000
     19 H7          3.9727   -5.2379    0.5811 H         1 <0>         0.0000
@<TRIPOS>BOND
     1    1    2 ar
     2    1    4 ar
     3    1   13 1
     4    2    5 ar
     5    2   14 1
     6    3    4 ar
     7    3    6 ar
     8    3   15 1
     9    4    7 1
    10    5    6 ar
    11    5   11 1
    12    6   12 1
    13    7    8 1
    14    7    9 2
    15    8   16 1
    16    8   17 1
    17    8   18 1
    18    9   10 1
    19   10   19 1
