@<TRIPOS>MOLECULE
*****
   25    27     0     0     0
SMALL
NO_CHARGES

@<TRIPOS>ATOM
      1 C1         -1.9407    1.6683    4.0349 C.ar      1 <0>         0.0000
      2 C2         -2.6801    0.5175    4.3005 C.ar      1 <0>         0.0000
      3 C3         -1.5153   -0.7274    2.5334 C.ar      1 <0>         0.0000
      4 C4          0.6390    2.0294    1.4991 C.2       1 <0>         0.0000
      5 C5         -0.7596    0.4277    2.2573 C.ar      1 <0>         0.0000
      6 C6          0.2821    0.7148    1.2972 C.2       1 <0>         0.0000
      7 C7         -0.9863    1.6120    3.0129 C.ar      1 <0>         0.0000
      8 C8         -2.4576   -0.6558    3.5504 C.ar      1 <0>         0.0000
      9 C9          1.7679    0.2882   -0.7894 C.3       1 <0>         0.0000
     10 C10         0.5585    0.3244   -1.7555 C.3       1 <0>         0.0000
     11 C11         0.7866   -0.2628    0.2795 C.3       1 <0>         0.0000
     12 N1         -0.1191    2.5740    2.5274 N.pl3     1 <0>         0.0000
     13 N2         -0.1887   -0.5701   -0.8260 N.3       1 <0>         0.0000
     14 Br1        -3.5080   -2.2146    3.9618 Br        1 <0>         0.0000
     15 H1         -2.1102    2.5748    4.6105 H         1 <0>         0.0000
     16 H2         -3.4296    0.5210    5.0847 H         1 <0>         0.0000
     17 H3         -1.3675   -1.6436    1.9706 H         1 <0>         0.0000
     18 H4          1.3836    2.6316    0.9969 H         1 <0>         0.0000
     19 H5          2.5188   -0.4507   -1.0761 H         1 <0>         0.0000
     20 H6          2.2656    1.2357   -0.5749 H         1 <0>         0.0000
     21 H7          0.1310    1.3317   -1.8516 H         1 <0>         0.0000
     22 H8          0.7042   -0.0981   -2.7550 H         1 <0>         0.0000
     23 H9          1.1158   -1.1786    0.7847 H         1 <0>         0.0000
     24 H10        -0.0283    3.5151    2.8818 H         1 <0>         0.0000
     25 H11        -1.1351   -0.2527   -0.6212 H         1 <0>         0.0000
@<TRIPOS>BOND
     1    1    2 ar
     2    1    7 ar
     3    1   15 1
     4    2    8 ar
     5    2   16 1
     6    3    5 ar
     7    3    8 ar
     8    3   17 1
     9    4    6 2
    10    4   12 1
    11    4   18 1
    12    5    6 1
    13    5    7 ar
    14    6   11 1
    15    7   12 1
    16    8   14 1
    17    9   10 1
    18    9   11 1
    19    9   19 1
    20    9   20 1
    21   10   13 1
    22   10   21 1
    23   10   22 1
    24   11   13 1
    25   11   23 1
    26   12   24 1
    27   13   25 1
