@<TRIPOS>MOLECULE
*****
   39    41     0     0     0
SMALL
NO_CHARGES

@<TRIPOS>ATOM
      1 C1         -7.1042   -6.5244    6.8363 C.ar      1 <0>         0.0000
      2 C2         -5.9745   -6.8808    7.5883 C.ar      1 <0>         0.0000
      3 C3         -6.9880   -6.1725    5.4869 C.ar      1 <0>         0.0000
      4 C4         -4.6987   -6.8933    7.0090 C.ar      1 <0>         0.0000
      5 C5         -4.2762   -8.7144    1.8132 C.2       1 <0>         0.0000
      6 C6         -5.7217   -6.1855    4.9060 C.ar      1 <0>         0.0000
      7 C7         -4.5617   -7.7003    0.8314 C.2       1 <0>         0.0000
      8 C8         -4.6126   -6.5407    5.6693 C.ar      1 <0>         0.0000
      9 C9         -4.9916   -9.8374    1.4758 C.2       1 <0>         0.0000
     10 C10        -5.4706   -8.2511   -0.0801 C.2       1 <0>         0.0000
     11 C11        -5.3962   -5.8438    3.4900 C.2       1 <0>         0.0000
     12 C12        -4.0440   -6.3402    0.7645 C.2       1 <0>         0.0000
     13 C13        -5.0407  -11.1787    2.1359 C.3       1 <0>         0.0000
     14 C14        -6.1542   -7.6354   -1.2577 C.3       1 <0>         0.0000
     15 C15        -6.6754  -10.4351   -0.3128 C.3       1 <0>         0.0000
     16 C16        -3.3638   -5.7388    2.0127 C.3       1 <0>         0.0000
     17 N1         -5.7186   -9.5409    0.3193 N.pl3     1 <0>         0.0000
     18 N2         -4.0368   -6.0450    3.2744 N.am      1 <0>         0.0000
     19 O1         -6.1785   -5.4561    2.6393 O.2       1 <0>         0.0000
     20 O2         -4.0707   -5.6322   -0.2410 O.2       1 <0>         0.0000
     21 O3         -2.2800   -5.3288    5.0668 O.2       1 <0>         0.0000
     22 O4         -2.5168   -7.7698    4.4975 O.2       1 <0>         0.0000
     23 S1         -3.1300   -6.4527    4.6794 S.o2      1 <0>         0.0000
     24 H1         -8.0812   -6.5216    7.3112 H         1 <0>         0.0000
     25 H2         -6.0876   -7.1494    8.6347 H         1 <0>         0.0000
     26 H3         -7.8501   -5.8928    4.8888 H         1 <0>         0.0000
     27 H4         -3.8188   -7.1658    7.5835 H         1 <0>         0.0000
     28 H5         -3.5885   -8.6501    2.6447 H         1 <0>         0.0000
     29 H6         -6.0557  -11.4547    2.4475 H         1 <0>         0.0000
     30 H7         -4.6648  -11.9793    1.4861 H         1 <0>         0.0000
     31 H8         -4.4129  -11.1590    3.0296 H         1 <0>         0.0000
     32 H9         -5.7979   -8.0673   -2.2019 H         1 <0>         0.0000
     33 H10        -7.2399   -7.7795   -1.2131 H         1 <0>         0.0000
     34 H11        -5.9368   -6.5688   -1.2837 H         1 <0>         0.0000
     35 H12        -7.6859  -10.2858    0.0856 H         1 <0>         0.0000
     36 H13        -6.6944  -10.2605   -1.3898 H         1 <0>         0.0000
     37 H14        -6.3817  -11.4712   -0.1398 H         1 <0>         0.0000
     38 H15        -3.3049   -4.6592    1.8614 H         1 <0>         0.0000
     39 H16        -2.3459   -6.1375    2.0738 H         1 <0>         0.0000
@<TRIPOS>BOND
     1    1    2 ar
     2    1    3 ar
     3    1   24 1
     4    2    4 ar
     5    2   25 1
     6    3    6 ar
     7    3   26 1
     8    4    8 ar
     9    4   27 1
    10    5    7 1
    11    5    9 2
    12    5   28 1
    13    6    8 ar
    14    6   11 1
    15    7   10 2
    16    7   12 1
    17    8   23 1
    18    9   13 1
    19    9   17 1
    20   10   14 1
    21   10   17 1
    22   11   18 am
    23   11   19 2
    24   12   16 1
    25   12   20 2
    26   13   29 1
    27   13   30 1
    28   13   31 1
    29   14   32 1
    30   14   33 1
    31   14   34 1
    32   15   17 1
    33   15   35 1
    34   15   36 1
    35   15   37 1
    36   16   18 1
    37   16   38 1
    38   16   39 1
    39   18   23 1
    40   21   23 2
    41   22   23 2
