@<TRIPOS>MOLECULE
*****
   25    26     0     0     0
SMALL
NO_CHARGES

@<TRIPOS>ATOM
      1 C1          1.8150   -1.2023   -0.1339 C.ar      1 <0>         0.0000
      2 C2         -0.2445    2.8664    5.8439 C.ar      1 <0>         0.0000
      3 C3          1.2759   -0.0727    0.5130 C.ar      1 <0>         0.0000
      4 C4         -0.7295    1.5556    6.0412 C.ar      1 <0>         0.0000
      5 C5          2.4754   -2.1916    0.5804 C.ar      1 <0>         0.0000
      6 C6          0.9414    3.0972    5.1658 C.ar      1 <0>         0.0000
      7 C7          1.4227    0.0250    1.9040 C.ar      1 <0>         0.0000
      8 C8          0.0339    0.4926    5.5435 C.ar      1 <0>         0.0000
      9 C9          2.6651   -2.1486    2.0232 C.ar      1 <0>         0.0000
     10 C10         1.7645    2.0344    4.5996 C.ar      1 <0>         0.0000
     11 C11         2.0747   -0.9613    2.6408 C.ar      1 <0>         0.0000
     12 C12         1.2357    0.6980    4.8624 C.ar      1 <0>         0.0000
     13 O1          3.2778   -3.0642    2.6446 O.3       1 <0>         0.0000
     14 O2          2.8031    2.2884    3.9276 O.3       1 <0>         0.0000
     15 O3          1.3678   -1.9310    5.0177 O.2       1 <0>         0.0000
     16 O4          3.5519   -0.6625    4.9019 O.2       1 <0>         0.0000
     17 S1          2.1558   -0.8074    4.4334 S.o2      1 <0>         0.0000
     18 H1          1.7134   -1.3020   -1.2185 H         1 <0>         0.0000
     19 H2         -0.8157    3.7164    6.2283 H         1 <0>         0.0000
     20 H3          0.7717    0.7151   -0.0438 H         1 <0>         0.0000
     21 H4         -1.6637    1.3701    6.5692 H         1 <0>         0.0000
     22 H5          2.8907   -3.0642    0.0750 H         1 <0>         0.0000
     23 H6          1.3068    4.1120    5.0070 H         1 <0>         0.0000
     24 H7          1.0255    0.8927    2.4198 H         1 <0>         0.0000
     25 H8         -0.2878   -0.5355    5.6877 H         1 <0>         0.0000
@<TRIPOS>BOND
     1    1    3 ar
     2    1    5 ar
     3    1   18 1
     4    2    4 ar
     5    2    6 ar
     6    2   19 1
     7    3    7 ar
     8    3   20 1
     9    4    8 ar
    10    4   21 1
    11    5    9 ar
    12    5   22 1
    13    6   10 ar
    14    6   23 1
    15    7   11 ar
    16    7   24 1
    17    8   12 ar
    18    8   25 1
    19    9   11 ar
    20    9   13 1
    21   10   12 ar
    22   10   14 1
    23   11   17 1
    24   12   17 1
    25   15   17 2
    26   16   17 2
