@<TRIPOS>MOLECULE
*****
   36    38     0     0     0
SMALL
NO_CHARGES

@<TRIPOS>ATOM
      1 C1          4.1133   -3.8106    1.5475 C.1       1 <0>         0.0000
      2 C2         -2.0107   -0.8083    1.6239 C.1       1 <0>         0.0000
      3 C3         -8.0378    1.1658    6.1169 C.ar      1 <0>         0.0000
      4 C4         -8.5927    1.9736    5.1198 C.ar      1 <0>         0.0000
      5 C5          1.9408   -2.7242    1.1383 C.ar      1 <0>         0.0000
      6 C6          2.6448   -3.1892    3.4222 C.ar      1 <0>         0.0000
      7 C7         -6.7602    0.6435    5.9374 C.ar      1 <0>         0.0000
      8 C8          0.7577   -2.1690    1.6089 C.ar      1 <0>         0.0000
      9 C9          1.4597   -2.6328    3.8858 C.ar      1 <0>         0.0000
     10 C10        -7.8615    2.2511    3.9633 C.ar      1 <0>         0.0000
     11 C11         2.8920   -3.2377    2.0393 C.ar      1 <0>         0.0000
     12 C12        -6.0228    0.9172    4.7698 C.ar      1 <0>         0.0000
     13 C13         0.4928   -2.1120    2.9960 C.ar      1 <0>         0.0000
     14 C14        -6.5716    1.7388    3.7565 C.ar      1 <0>         0.0000
     15 C15        -4.6789    0.3248    4.6641 C.2       1 <0>         0.0000
     16 C16        -2.9064   -0.4900    3.8701 C.2       1 <0>         0.0000
     17 C17        -0.7102   -1.5541    3.5964 C.2       1 <0>         0.0000
     18 C18        -1.8131   -0.9826    3.0337 C.2       1 <0>         0.0000
     19 C19        -5.8376    2.1015    2.4857 C.3       1 <0>         0.0000
     20 N1          5.1051   -4.2760    1.1502 N.1       1 <0>         0.0000
     21 N2         -2.1641   -0.6672    0.4779 N.1       1 <0>         0.0000
     22 N3         -4.0205    0.0592    3.4736 N.2       1 <0>         0.0000
     23 N4         -3.9947   -0.0372    5.7367 N.2       1 <0>         0.0000
     24 O1         -2.8090   -0.5907    5.2111 O.3       1 <0>         0.0000
     25 H1         -8.5965    0.9409    7.0211 H         1 <0>         0.0000
     26 H2         -9.5906    2.3872    5.2411 H         1 <0>         0.0000
     27 H3          2.1367   -2.7643    0.0715 H         1 <0>         0.0000
     28 H4          3.3787   -3.5854    4.1167 H         1 <0>         0.0000
     29 H5         -6.3187    0.0074    6.6981 H         1 <0>         0.0000
     30 H6          0.0449   -1.7822    0.8927 H         1 <0>         0.0000
     31 H7          1.2724   -2.5972    4.9557 H         1 <0>         0.0000
     32 H8         -8.2984    2.8868    3.1971 H         1 <0>         0.0000
     33 H9         -0.7324   -1.6013    4.6824 H         1 <0>         0.0000
     34 H10        -4.8350    2.4868    2.6906 H         1 <0>         0.0000
     35 H11        -5.7063    1.2331    1.8356 H         1 <0>         0.0000
     36 H12        -6.3934    2.8667    1.9376 H         1 <0>         0.0000
@<TRIPOS>BOND
     1    1   11 1
     2    1   20 3
     3    2   18 1
     4    2   21 3
     5    3    4 ar
     6    3    7 ar
     7    3   25 1
     8    4   10 ar
     9    4   26 1
    10    5    8 ar
    11    5   11 ar
    12    5   27 1
    13    6    9 ar
    14    6   11 ar
    15    6   28 1
    16    7   12 ar
    17    7   29 1
    18    8   13 ar
    19    8   30 1
    20    9   13 ar
    21    9   31 1
    22   10   14 ar
    23   10   32 1
    24   12   14 ar
    25   12   15 1
    26   13   17 1
    27   14   19 1
    28   15   22 1
    29   15   23 2
    30   16   18 1
    31   16   22 2
    32   16   24 1
    33   17   18 2
    34   17   33 1
    35   19   34 1
    36   19   35 1
    37   19   36 1
    38   23   24 1
