@<TRIPOS>MOLECULE
*****
   22    23     0     0     0
SMALL
NO_CHARGES

@<TRIPOS>ATOM
      1 C1          1.3214   -1.3240   -0.0155 C.ar      1 <0>         0.0000
      2 C2          3.1511   -1.7999    1.5304 C.ar      1 <0>         0.0000
      3 C3          0.5773   -0.7928    1.0399 C.ar      1 <0>         0.0000
      4 C4          2.3963   -1.2660    2.5768 C.ar      1 <0>         0.0000
      5 C5         -1.6634   -3.6967    4.7050 C.2       1 <0>         0.0000
      6 C6          2.5948   -1.8184    0.2542 C.ar      1 <0>         0.0000
      7 C7          1.1077   -0.7680    2.3375 C.ar      1 <0>         0.0000
      8 C8         -2.0938   -2.6853    5.5203 C.2       1 <0>         0.0000
      9 C9         -0.7046   -1.5076    4.2483 C.2       1 <0>         0.0000
     10 C10        -3.0814   -2.8080    6.6429 C.3       1 <0>         0.0000
     11 N1         -1.5371   -1.4453    5.2457 N.2       1 <0>         0.0000
     12 F1          3.3222   -2.3346   -0.7657 F         1 <0>         0.0000
     13 S1         -0.5149   -3.1083    3.5354 S.3       1 <0>         0.0000
     14 S2          0.1543   -0.0656    3.6822 S.3       1 <0>         0.0000
     15 H1          0.9310   -1.3573   -1.0278 H         1 <0>         0.0000
     16 H2          4.1495   -2.1945    1.6915 H         1 <0>         0.0000
     17 H3         -0.4202   -0.4039    0.8602 H         1 <0>         0.0000
     18 H4          2.8025   -1.2424    3.5832 H         1 <0>         0.0000
     19 H5         -1.9504   -4.7401    4.7221 H         1 <0>         0.0000
     20 H6         -2.6255   -2.4975    7.5888 H         1 <0>         0.0000
     21 H7         -3.9439   -2.1570    6.4661 H         1 <0>         0.0000
     22 H8         -3.4351   -3.8367    6.7461 H         1 <0>         0.0000
@<TRIPOS>BOND
     1    1    3 ar
     2    1    6 ar
     3    1   15 1
     4    2    4 ar
     5    2    6 ar
     6    2   16 1
     7    3    7 ar
     8    3   17 1
     9    4    7 ar
    10    4   18 1
    11    5    8 2
    12    5   13 1
    13    5   19 1
    14    6   12 1
    15    7   14 1
    16    8   10 1
    17    8   11 1
    18    9   11 2
    19    9   13 1
    20    9   14 1
    21   10   20 1
    22   10   21 1
    23   10   22 1
