@<TRIPOS>MOLECULE
*****
   26    26     0     0     0
SMALL
NO_CHARGES

@<TRIPOS>ATOM
      1 C1         -2.2276    3.7972    1.8332 C.ar      1 <0>         0.0000
      2 C2         -2.3814    3.1666    3.0697 C.ar      1 <0>         0.0000
      3 C3         -1.2350    3.3730    0.9446 C.ar      1 <0>         0.0000
      4 C4         -1.5321    2.1117    3.4086 C.ar      1 <0>         0.0000
      5 C5         -0.3678    2.3144    1.2513 C.ar      1 <0>         0.0000
      6 C6         -0.5421    1.7042    2.5105 C.ar      1 <0>         0.0000
      7 C7          0.6843    1.8881    0.2572 C.3       1 <0>         0.0000
      8 C8          2.1325    1.9884    4.2522 C.3       1 <0>         0.0000
      9 C9          3.1286    0.1076    3.0177 C.3       1 <0>         0.0000
     10 N1          2.0125    1.0645    3.1145 N.pl3     1 <0>         0.0000
     11 O1          0.0264   -0.1009    4.3616 O.2       1 <0>         0.0000
     12 O2          0.5684   -0.6751    1.9501 O.2       1 <0>         0.0000
     13 S1          0.4805    0.3171    3.0268 S.o2      1 <0>         0.0000
     14 H1         -2.8808    4.6206    1.5560 H         1 <0>         0.0000
     15 H2         -3.1529    3.4877    3.7636 H         1 <0>         0.0000
     16 H3         -1.1287    3.8710   -0.0159 H         1 <0>         0.0000
     17 H4         -1.6249    1.5975    4.3596 H         1 <0>         0.0000
     18 H5          1.6832    1.9587    0.6975 H         1 <0>         0.0000
     19 H6          0.5419    0.8460   -0.0389 H         1 <0>         0.0000
     20 H7          0.6437    2.5205   -0.6328 H         1 <0>         0.0000
     21 H8          1.3056    2.7016    4.2414 H         1 <0>         0.0000
     22 H9          3.0638    2.5481    4.1299 H         1 <0>         0.0000
     23 H10         2.1443    1.4664    5.2177 H         1 <0>         0.0000
     24 H11         2.9695   -0.5501    2.1635 H         1 <0>         0.0000
     25 H12         3.2449   -0.4975    3.9275 H         1 <0>         0.0000
     26 H13         4.0428    0.6855    2.8558 H         1 <0>         0.0000
@<TRIPOS>BOND
     1    1    2 ar
     2    1    3 ar
     3    1   14 1
     4    2    4 ar
     5    2   15 1
     6    3    5 ar
     7    3   16 1
     8    4    6 ar
     9    4   17 1
    10    5    6 ar
    11    5    7 1
    12    6   13 1
    13    7   18 1
    14    7   19 1
    15    7   20 1
    16    8   10 1
    17    8   21 1
    18    8   22 1
    19    8   23 1
    20    9   10 1
    21    9   24 1
    22    9   25 1
    23    9   26 1
    24   10   13 1
    25   11   13 2
    26   12   13 2
