@<TRIPOS>MOLECULE
*****
   29    30     0     0     0
SMALL
NO_CHARGES

@<TRIPOS>ATOM
      1 C1          6.0031   -3.3678   -1.3845 C.ar      1 <0>         0.0000
      2 C2          2.3395   -2.2286    1.7462 C.ar      1 <0>         0.0000
      3 C3          2.3769   -0.2362    0.3429 C.ar      1 <0>         0.0000
      4 C4          7.0417   -3.8980   -2.1292 C.ar      1 <0>         0.0000
      5 C5          1.2954   -1.6929    2.4982 C.ar      1 <0>         0.0000
      6 C6          1.3346    0.3041    1.0873 C.ar      1 <0>         0.0000
      7 C7          7.0375   -1.9147   -3.5473 C.ar      1 <0>         0.0000
      8 C8          2.8809   -1.5103    0.6686 C.ar      1 <0>         0.0000
      9 C9          5.4486   -2.1046   -1.6900 C.ar      1 <0>         0.0000
     10 C10         7.5629   -3.1694   -3.2162 C.ar      1 <0>         0.0000
     11 C11         5.9945   -1.4075   -2.7814 C.ar      1 <0>         0.0000
     12 C12         0.8016   -0.4337    2.1523 C.ar      1 <0>         0.0000
     13 N1          3.9396   -2.1540   -0.0219 N.2       1 <0>         0.0000
     14 N2          4.3995   -1.4873   -0.9948 N.2       1 <0>         0.0000
     15 O1         -0.5356   -0.3295    4.4290 O.2       1 <0>         0.0000
     16 O2         -0.6097    1.6992    2.8698 O.2       1 <0>         0.0000
     17 O3          8.5855   -3.7412   -3.9134 O.3       1 <0>         0.0000
     18 O4         -1.8615   -0.3911    2.3336 O.3       1 <0>         0.0000
     19 F1          5.5017   -0.1995   -3.1143 F         1 <0>         0.0000
     20 S1         -0.5465    0.2557    3.0993 S.o2      1 <0>         0.0000
     21 H1          5.5893   -3.9139   -0.5438 H         1 <0>         0.0000
     22 H2          2.7539   -3.2041    1.9821 H         1 <0>         0.0000
     23 H3          2.8158    0.3108   -0.4841 H         1 <0>         0.0000
     24 H4          7.4702   -4.8678   -1.8970 H         1 <0>         0.0000
     25 H5          0.8765   -2.2307    3.3424 H         1 <0>         0.0000
     26 H6          0.9451    1.2930    0.8661 H         1 <0>         0.0000
     27 H7          7.4190   -1.3296   -4.3799 H         1 <0>         0.0000
     28 H8          8.8629   -3.1522   -4.6337 H         1 <0>         0.0000
     29 H9         -2.2662    0.3159    1.7951 H         1 <0>         0.0000
@<TRIPOS>BOND
     1    1    4 ar
     2    1    9 ar
     3    1   21 1
     4    2    5 ar
     5    2    8 ar
     6    2   22 1
     7    3    6 ar
     8    3    8 ar
     9    3   23 1
    10    4   10 ar
    11    4   24 1
    12    5   12 ar
    13    5   25 1
    14    6   12 ar
    15    6   26 1
    16    7   10 ar
    17    7   11 ar
    18    7   27 1
    19    8   13 1
    20    9   11 ar
    21    9   14 1
    22   10   17 1
    23   11   19 1
    24   12   20 1
    25   13   14 2
    26   15   20 2
    27   16   20 2
    28   17   28 1
    29   18   20 1
    30   18   29 1
