@<TRIPOS>MOLECULE
*****
   25    25     0     0     0
SMALL
NO_CHARGES

@<TRIPOS>ATOM
      1 C1          1.9275   -0.9041   -0.1428 C.ar      1 <0>         0.0000
      2 C2          0.8060   -0.3900    0.5079 C.ar      1 <0>         0.0000
      3 C3          1.7876   -0.9893    2.6461 C.ar      1 <0>         0.0000
      4 C4          3.0041   -1.4470    0.5717 C.ar      1 <0>         0.0000
      5 C5          0.7483   -0.4420    1.8982 C.ar      1 <0>         0.0000
      6 C6          2.9098   -1.4798    1.9781 C.ar      1 <0>         0.0000
      7 C7          4.1486   -1.9469   -0.2981 C.2       1 <0>         0.0000
      8 N1         -1.6396   -1.1623    2.9922 N.pl3     1 <0>         0.0000
      9 N2          5.4699   -1.1638    2.7958 N.pl3     1 <0>         0.0000
     10 O1          3.9131   -2.5691   -1.3095 O.2       1 <0>         0.0000
     11 O2         -0.2444    0.6663    4.0741 O.2       1 <0>         0.0000
     12 O3         -1.3963    1.0817    1.8079 O.2       1 <0>         0.0000
     13 O4          3.6841   -2.1664    4.4120 O.2       1 <0>         0.0000
     14 O5          4.5998   -3.5103    2.4389 O.2       1 <0>         0.0000
     15 O6          5.3991   -1.5821    0.0276 O.3       1 <0>         0.0000
     16 S1         -0.6919    0.2166    2.7554 S.o2      1 <0>         0.0000
     17 S2          4.1547   -2.2545    3.0314 S.o2      1 <0>         0.0000
     18 H1          1.9841   -0.8946   -1.2262 H         1 <0>         0.0000
     19 H2         -0.0101    0.0539   -0.0534 H         1 <0>         0.0000
     20 H3          1.7351   -1.0330    3.7290 H         1 <0>         0.0000
     21 H4         -1.7894   -1.3166    3.9885 H         1 <0>         0.0000
     22 H5         -2.5205   -1.0751    2.4871 H         1 <0>         0.0000
     23 H6          5.3940   -0.3829    3.4518 H         1 <0>         0.0000
     24 H7          6.3329   -1.6807    2.9884 H         1 <0>         0.0000
     25 H8          5.4435   -1.1391    0.9077 H         1 <0>         0.0000
@<TRIPOS>BOND
     1    1    2 ar
     2    1    4 ar
     3    1   18 1
     4    2    5 ar
     5    2   19 1
     6    3    5 ar
     7    3    6 ar
     8    3   20 1
     9    4    6 ar
    10    4    7 1
    11    5   16 1
    12    6   17 1
    13    7   10 2
    14    7   15 1
    15    8   16 1
    16    8   21 1
    17    8   22 1
    18    9   17 1
    19    9   23 1
    20    9   24 1
    21   11   16 2
    22   12   16 2
    23   13   17 2
    24   14   17 2
    25   15   25 1
