@<TRIPOS>MOLECULE
*****
   30    30     0     0     0
SMALL
NO_CHARGES

@<TRIPOS>ATOM
      1 C1          0.2657    1.2563   -0.0585 C.2       1 <0>         0.0000
      2 C2          0.3063   -0.0584    0.2917 C.2       1 <0>         0.0000
      3 C3          1.3952    2.1669   -0.1843 C.2       1 <0>         0.0000
      4 C4         -2.0305    0.1574   -0.3122 C.3       1 <0>         0.0000
      5 C5         -1.0374   -0.7267    0.4629 C.3       1 <0>         0.0000
      6 C6         -2.4080   -2.8775    0.2893 C.3       1 <0>         0.0000
      7 C7          5.3725    3.8279    1.2382 C.3       1 <0>         0.0000
      8 C8         -1.0587   -2.1995    0.0283 C.3       1 <0>         0.0000
      9 C9          4.0791    3.0058    1.2873 C.3       1 <0>         0.0000
     10 C10         3.7981    2.3380   -0.0531 C.3       1 <0>         0.0000
     11 O1          1.3246    3.3600   -0.4160 O.2       1 <0>         0.0000
     12 O2          1.3969   -0.8018    0.5577 O.3       1 <0>         0.0000
     13 O3          2.6014    1.5132   -0.0018 O.3       1 <0>         0.0000
     14 S1         -1.3946    1.8893   -0.2651 S.3       1 <0>         0.0000
     15 H1         -2.0823   -0.1643   -1.3579 H         1 <0>         0.0000
     16 H2         -3.0340    0.1388    0.1146 H         1 <0>         0.0000
     17 H3         -1.2731   -0.6752    1.5383 H         1 <0>         0.0000
     18 H4         -2.6765   -2.8257    1.3508 H         1 <0>         0.0000
     19 H5         -2.3737   -3.9341    0.0055 H         1 <0>         0.0000
     20 H6         -3.2164   -2.4093   -0.2822 H         1 <0>         0.0000
     21 H7          6.2376    3.2019    0.9901 H         1 <0>         0.0000
     22 H8          5.3077    4.6234    0.4879 H         1 <0>         0.0000
     23 H9          5.5702    4.2990    2.2057 H         1 <0>         0.0000
     24 H10        -0.8096   -2.2583   -1.0386 H         1 <0>         0.0000
     25 H11        -0.2653   -2.7317    0.5620 H         1 <0>         0.0000
     26 H12         3.2334    3.6509    1.5434 H         1 <0>         0.0000
     27 H13         4.1496    2.2341    2.0629 H         1 <0>         0.0000
     28 H14         3.6745    3.0775   -0.8466 H         1 <0>         0.0000
     29 H15         4.5957    1.6434   -0.3286 H         1 <0>         0.0000
     30 H16         2.1798   -0.2180    0.4500 H         1 <0>         0.0000
@<TRIPOS>BOND
     1    1    2 2
     2    1    3 1
     3    1   14 1
     4    2    5 1
     5    2   12 1
     6    3   11 2
     7    3   13 1
     8    4    5 1
     9    4   14 1
    10    4   15 1
    11    4   16 1
    12    5    8 1
    13    5   17 1
    14    6    8 1
    15    6   18 1
    16    6   19 1
    17    6   20 1
    18    7    9 1
    19    7   21 1
    20    7   22 1
    21    7   23 1
    22    8   24 1
    23    8   25 1
    24    9   10 1
    25    9   26 1
    26    9   27 1
    27   10   13 1
    28   10   28 1
    29   10   29 1
    30   12   30 1
