@<TRIPOS>MOLECULE
*****
   27    28     0     0     0
SMALL
NO_CHARGES

@<TRIPOS>ATOM
      1 C1         -1.5953    1.5426   -1.4732 C.ar      1 <0>         0.0000
      2 C2         -1.2165    2.3678   -0.4066 C.ar      1 <0>         0.0000
      3 C3         -1.0676    0.2567   -1.5636 C.ar      1 <0>         0.0000
      4 C4         -0.2884    1.9052    0.5216 C.ar      1 <0>         0.0000
      5 C5         -0.1689   -0.2571   -0.6092 C.ar      1 <0>         0.0000
      6 C6          0.2476    0.6077    0.4227 C.ar      1 <0>         0.0000
      7 C7          1.3586   -2.1995    0.2161 C.3       1 <0>         0.0000
      8 C8          2.3390   -1.1156    0.6441 C.3       1 <0>         0.0000
      9 C9          0.2682   -1.7156   -0.7633 C.3       1 <0>         0.0000
     10 C10        -0.9371   -2.6925   -0.7048 C.3       1 <0>         0.0000
     11 C11        -1.8277   -2.5838    0.5431 C.3       1 <0>         0.0000
     12 O1         -2.8188   -1.5573    0.4656 O.3       1 <0>         0.0000
     13 S1          1.4781    0.1588    1.6290 S.3       1 <0>         0.0000
     14 H1         -2.2995    1.8959   -2.2213 H         1 <0>         0.0000
     15 H2         -1.6228    3.3713   -0.3127 H         1 <0>         0.0000
     16 H3         -1.3825   -0.3865   -2.3816 H         1 <0>         0.0000
     17 H4          0.0483    2.5562    1.3246 H         1 <0>         0.0000
     18 H5          1.9046   -3.0222   -0.2624 H         1 <0>         0.0000
     19 H6          0.9015   -2.6125    1.1201 H         1 <0>         0.0000
     20 H7          3.1182   -1.5205    1.2954 H         1 <0>         0.0000
     21 H8          2.8213   -0.6352   -0.2134 H         1 <0>         0.0000
     22 H9          0.6859   -1.7971   -1.7752 H         1 <0>         0.0000
     23 H10        -0.5343   -3.7124   -0.7601 H         1 <0>         0.0000
     24 H11        -1.5794   -2.5658   -1.5821 H         1 <0>         0.0000
     25 H12        -2.3936   -3.5121    0.6604 H         1 <0>         0.0000
     26 H13        -1.2184   -2.4591    1.4496 H         1 <0>         0.0000
     27 H14        -2.3655   -0.7028    0.3903 H         1 <0>         0.0000
@<TRIPOS>BOND
     1    1    2 ar
     2    1    3 ar
     3    1   14 1
     4    2    4 ar
     5    2   15 1
     6    3    5 ar
     7    3   16 1
     8    4    6 ar
     9    4   17 1
    10    5    6 ar
    11    5    9 1
    12    6   13 1
    13    7    8 1
    14    7    9 1
    15    7   18 1
    16    7   19 1
    17    8   13 1
    18    8   20 1
    19    8   21 1
    20    9   10 1
    21    9   22 1
    22   10   11 1
    23   10   23 1
    24   10   24 1
    25   11   12 1
    26   11   25 1
    27   11   26 1
    28   12   27 1
