@<TRIPOS>MOLECULE
*****
   25    25     0     0     0
SMALL
NO_CHARGES

@<TRIPOS>ATOM
      1 C1          1.9981   -0.9560    0.2472 C.ar      1 <0>         0.0000
      2 C2          0.8863   -0.4019    0.8869 C.ar      1 <0>         0.0000
      3 C3          1.7517   -1.1628    3.0318 C.ar      1 <0>         0.0000
      4 C4          2.9825   -1.6282    0.9819 C.ar      1 <0>         0.0000
      5 C5          0.7767   -0.5167    2.2700 C.ar      1 <0>         0.0000
      6 C6          2.8400   -1.7266    2.3759 C.ar      1 <0>         0.0000
      7 C7          4.1058   -2.3032    0.2330 C.2       1 <0>         0.0000
      8 N1         -1.6843   -1.1105    3.2683 N.pl3     1 <0>         0.0000
      9 N2          3.8373   -4.1038    3.1487 N.pl3     1 <0>         0.0000
     10 O1          4.3338   -3.4904    0.3121 O.2       1 <0>         0.0000
     11 O2         -0.2146    0.6053    4.4423 O.2       1 <0>         0.0000
     12 O3         -1.2686    1.1395    2.1537 O.2       1 <0>         0.0000
     13 O4          5.4065   -2.0281    2.8188 O.2       1 <0>         0.0000
     14 O5          3.8153   -2.2157    4.8023 O.2       1 <0>         0.0000
     15 O6          4.8042   -1.5165   -0.6149 O.3       1 <0>         0.0000
     16 S1         -0.6456    0.2135    3.1013 S.o2      1 <0>         0.0000
     17 S2          4.1346   -2.4692    3.3974 S.o2      1 <0>         0.0000
     18 H1          2.0851   -0.8846   -0.8337 H         1 <0>         0.0000
     19 H2          0.1231    0.1265    0.3245 H         1 <0>         0.0000
     20 H3          1.6891   -1.2042    4.1150 H         1 <0>         0.0000
     21 H4         -1.8527   -1.2998    4.2556 H         1 <0>         0.0000
     22 H5         -2.5535   -0.9372    2.7652 H         1 <0>         0.0000
     23 H6          4.2372   -4.4149    2.2605 H         1 <0>         0.0000
     24 H7          4.1821   -4.6341    3.9492 H         1 <0>         0.0000
     25 H8          4.6055   -0.5796   -0.4417 H         1 <0>         0.0000
@<TRIPOS>BOND
     1    1    2 ar
     2    1    4 ar
     3    1   18 1
     4    2    5 ar
     5    2   19 1
     6    3    5 ar
     7    3    6 ar
     8    3   20 1
     9    4    6 ar
    10    4    7 1
    11    5   16 1
    12    6   17 1
    13    7   10 2
    14    7   15 1
    15    8   16 1
    16    8   21 1
    17    8   22 1
    18    9   17 1
    19    9   23 1
    20    9   24 1
    21   11   16 2
    22   12   16 2
    23   13   17 2
    24   14   17 2
    25   15   25 1
