@<TRIPOS>MOLECULE
*****
   16    16     0     0     0
SMALL
NO_CHARGES

@<TRIPOS>ATOM
      1 C1          1.9745   -0.7656   -0.1488 C.ar      1 <0>         0.0000
      2 C2          0.8135   -0.4060    0.5460 C.ar      1 <0>         0.0000
      3 C3          3.0124   -1.4130    0.5204 C.ar      1 <0>         0.0000
      4 C4          0.6924   -0.6894    1.9083 C.ar      1 <0>         0.0000
      5 C5          2.9050   -1.7243    1.8854 C.ar      1 <0>         0.0000
      6 C6          1.7371   -1.3419    2.5544 C.ar      1 <0>         0.0000
      7 C7          3.9890   -2.4414    2.5907 C.2       1 <0>         0.0000
      8 N1          3.9288   -3.5491    3.2245 N.2       1 <0>         0.0000
      9 O1          2.6471   -4.1135    3.1719 O.3       1 <0>         0.0000
     10 F1          1.6254   -1.5795    3.8789 F         1 <0>         0.0000
     11 Cl1         5.5811   -1.6991    2.5371 Cl        1 <0>         0.0000
     12 H1          2.0703   -0.5406   -1.2068 H         1 <0>         0.0000
     13 H2          0.0036    0.1028    0.0308 H         1 <0>         0.0000
     14 H3          3.9184   -1.6885   -0.0112 H         1 <0>         0.0000
     15 H4         -0.1889   -0.4086    2.4766 H         1 <0>         0.0000
     16 H5          2.7507   -4.9077    3.7218 H         1 <0>         0.0000
@<TRIPOS>BOND
     1    1    2 ar
     2    1    3 ar
     3    1   12 1
     4    2    4 ar
     5    2   13 1
     6    3    5 ar
     7    3   14 1
     8    4    6 ar
     9    4   15 1
    10    5    6 ar
    11    5    7 1
    12    6   10 1
    13    7    8 2
    14    7   11 1
    15    8    9 1
    16    9   16 1
