@<TRIPOS>MOLECULE
*****
   39    41     0     0     0
SMALL
NO_CHARGES

@<TRIPOS>ATOM
      1 C1         -5.3927   -1.1662    4.1141 C.ar      1 <0>         0.0000
      2 C2         -4.4057   -0.7195    3.2223 C.ar      1 <0>         0.0000
      3 C3         -5.5505   -2.5293    4.3865 C.ar      1 <0>         0.0000
      4 C4         -3.5520   -1.6263    2.5807 C.ar      1 <0>         0.0000
      5 C5         -4.0321   -9.5763    1.4911 C.2       1 <0>         0.0000
      6 C6         -4.7069   -3.4351    3.7463 C.ar      1 <0>         0.0000
      7 C7         -4.9214   -8.4859    1.1850 C.2       1 <0>         0.0000
      8 C8         -3.7370   -2.9731    2.8607 C.ar      1 <0>         0.0000
      9 C9         -4.4411  -10.6720    0.7705 C.2       1 <0>         0.0000
     10 C10        -5.8632   -8.9693    0.2685 C.2       1 <0>         0.0000
     11 C11        -4.7297   -4.9183    3.8967 C.2       1 <0>         0.0000
     12 C12        -4.8626   -7.1318    1.7208 C.2       1 <0>         0.0000
     13 C13        -3.8780  -12.0564    0.7135 C.3       1 <0>         0.0000
     14 C14        -7.0209   -8.2838   -0.3825 C.3       1 <0>         0.0000
     15 C15        -6.3297  -11.1737   -0.8297 C.3       1 <0>         0.0000
     16 C16        -3.7270   -6.8653    2.7355 C.3       1 <0>         0.0000
     17 N1         -5.5549  -10.2843    0.0219 N.pl3     1 <0>         0.0000
     18 N2         -3.6929   -5.4745    3.1442 N.am      1 <0>         0.0000
     19 O1         -5.4980   -5.5676    4.5854 O.2       1 <0>         0.0000
     20 O2         -5.6441   -6.2262    1.4432 O.2       1 <0>         0.0000
     21 O3         -3.0155   -4.5670    0.7839 O.2       1 <0>         0.0000
     22 O4         -1.4131   -4.3003    2.7058 O.2       1 <0>         0.0000
     23 S1         -2.7886   -4.3392    2.2092 S.o2      1 <0>         0.0000
     24 H1         -6.0413   -0.4414    4.5980 H         1 <0>         0.0000
     25 H2         -4.3005    0.3435    3.0247 H         1 <0>         0.0000
     26 H3         -6.3079   -2.8948    5.0734 H         1 <0>         0.0000
     27 H4         -2.7840   -1.2894    1.8913 H         1 <0>         0.0000
     28 H5         -3.1834   -9.5630    2.1624 H         1 <0>         0.0000
     29 H6         -4.6137  -12.8176    1.0000 H         1 <0>         0.0000
     30 H7         -3.5054  -12.3145   -0.2857 H         1 <0>         0.0000
     31 H8         -3.0369  -12.1316    1.4065 H         1 <0>         0.0000
     32 H9         -6.8883   -8.2162   -1.4699 H         1 <0>         0.0000
     33 H10        -7.9612   -8.8163   -0.1953 H         1 <0>         0.0000
     34 H11        -7.1046   -7.2729    0.0131 H         1 <0>         0.0000
     35 H12        -7.1317  -11.6648   -0.2666 H         1 <0>         0.0000
     36 H13        -6.7733  -10.6097   -1.6511 H         1 <0>         0.0000
     37 H14        -5.6793  -11.9401   -1.2532 H         1 <0>         0.0000
     38 H15        -2.7565   -7.1389    2.3146 H         1 <0>         0.0000
     39 H16        -3.8868   -7.4757    3.6286 H         1 <0>         0.0000
@<TRIPOS>BOND
     1    1    2 ar
     2    1    3 ar
     3    1   24 1
     4    2    4 ar
     5    2   25 1
     6    3    6 ar
     7    3   26 1
     8    4    8 ar
     9    4   27 1
    10    5    7 1
    11    5    9 2
    12    5   28 1
    13    6    8 ar
    14    6   11 1
    15    7   10 2
    16    7   12 1
    17    8   23 1
    18    9   13 1
    19    9   17 1
    20   10   14 1
    21   10   17 1
    22   11   18 am
    23   11   19 2
    24   12   16 1
    25   12   20 2
    26   13   29 1
    27   13   30 1
    28   13   31 1
    29   14   32 1
    30   14   33 1
    31   14   34 1
    32   15   17 1
    33   15   35 1
    34   15   36 1
    35   15   37 1
    36   16   18 1
    37   16   38 1
    38   16   39 1
    39   18   23 1
    40   21   23 2
    41   22   23 2
