@<TRIPOS>MOLECULE
*****
   24    24     0     0     0
SMALL
NO_CHARGES

@<TRIPOS>ATOM
      1 C1          0.7920    0.5243   -0.0459 C.2       1 <0>         0.0000
      2 C2          0.0600   -0.4185   -0.7065 C.2       1 <0>         0.0000
      3 C3          1.4959    1.5620   -0.7722 C.2       1 <0>         0.0000
      4 C4         -0.0065   -1.3196    1.5363 C.3       1 <0>         0.0000
      5 C5         -0.7183   -1.3660    0.1696 C.3       1 <0>         0.0000
      6 C6         -2.1928   -0.9230    0.2359 C.3       1 <0>         0.0000
      7 C7          4.2552    3.0343   -1.0530 C.3       1 <0>         0.0000
      8 C8          2.8670    3.5094   -0.6495 C.3       1 <0>         0.0000
      9 O1          1.5043    1.6237   -2.0128 O.2       1 <0>         0.0000
     10 O2         -0.0771   -0.5216   -2.0341 O.3       1 <0>         0.0000
     11 O3          2.1220    2.4529    0.0156 O.3       1 <0>         0.0000
     12 S1          0.7169    0.3739    1.7344 S.3       1 <0>         0.0000
     13 H1         -0.6882   -1.5107    2.3675 H         1 <0>         0.0000
     14 H2          0.8126   -2.0430    1.5710 H         1 <0>         0.0000
     15 H3         -0.6658   -2.3782   -0.2456 H         1 <0>         0.0000
     16 H4         -2.2751    0.0674    0.6942 H         1 <0>         0.0000
     17 H5         -2.7754   -1.6310    0.8340 H         1 <0>         0.0000
     18 H6         -2.6273   -0.8799   -0.7666 H         1 <0>         0.0000
     19 H7          4.8016    2.6544   -0.1846 H         1 <0>         0.0000
     20 H8          4.1919    2.2463   -1.8072 H         1 <0>         0.0000
     21 H9          4.8198    3.8720   -1.4767 H         1 <0>         0.0000
     22 H10         2.2953    3.8549   -1.5131 H         1 <0>         0.0000
     23 H11         2.9166    4.3050    0.0962 H         1 <0>         0.0000
     24 H12         0.4531    0.2224   -2.4255 H         1 <0>         0.0000
@<TRIPOS>BOND
     1    1    2 2
     2    1    3 1
     3    1   12 1
     4    2    5 1
     5    2   10 1
     6    3    9 2
     7    3   11 1
     8    4    5 1
     9    4   12 1
    10    4   13 1
    11    4   14 1
    12    5    6 1
    13    5   15 1
    14    6   16 1
    15    6   17 1
    16    6   18 1
    17    7    8 1
    18    7   19 1
    19    7   20 1
    20    7   21 1
    21    8   11 1
    22    8   22 1
    23    8   23 1
    24   10   24 1
