@<TRIPOS>MOLECULE
*****
   27    29     0     0     0
SMALL
NO_CHARGES

@<TRIPOS>ATOM
      1 C1          7.2693   -6.4819   -0.5621 C.ar      1 <0>         0.0000
      2 C2          8.4297   -6.3459   -1.3299 C.ar      1 <0>         0.0000
      3 C3          6.4177   -5.3938   -0.4025 C.ar      1 <0>         0.0000
      4 C4          2.3756   -0.4097    0.6805 C.ar      1 <0>         0.0000
      5 C5          1.2176    0.0669    1.2810 C.ar      1 <0>         0.0000
      6 C6          8.7243   -5.1217   -1.9304 C.ar      1 <0>         0.0000
      7 C7          0.6576   -2.2051    1.9347 C.ar      1 <0>         0.0000
      8 C8          2.7130   -1.7792    0.6880 C.ar      1 <0>         0.0000
      9 C9          6.6912   -4.1436   -0.9976 C.ar      1 <0>         0.0000
     10 C10         0.3633   -0.8433    1.9087 C.ar      1 <0>         0.0000
     11 C11         1.8267   -2.6719    1.3276 C.ar      1 <0>         0.0000
     12 C12         7.8660   -4.0297   -1.7684 C.ar      1 <0>         0.0000
     13 C13         5.7076   -3.0739   -0.7486 C.2       1 <0>         0.0000
     14 C14         3.9589   -2.1825    0.0340 C.2       1 <0>         0.0000
     15 N1          4.5854   -3.3248    0.0274 N.2       1 <0>         0.0000
     16 N2          5.7726   -1.8355   -1.1993 N.2       1 <0>         0.0000
     17 O1          4.6111   -1.2342   -0.6839 O.3       1 <0>         0.0000
     18 Cl1        -1.1009   -0.2724    2.6738 Cl        1 <0>         0.0000
     19 Cl2         2.1016   -4.3930    1.3959 Cl        1 <0>         0.0000
     20 Br1         8.3930   -2.4158   -2.6508 Br        1 <0>         0.0000
     21 H1          7.0292   -7.4303   -0.0903 H         1 <0>         0.0000
     22 H2          9.1062   -7.1854   -1.4648 H         1 <0>         0.0000
     23 H3          5.5141   -5.4831    0.1895 H         1 <0>         0.0000
     24 H4          3.0476    0.2871    0.1921 H         1 <0>         0.0000
     25 H5          0.9794    1.1250    1.2660 H         1 <0>         0.0000
     26 H6          9.6219   -5.0063   -2.5286 H         1 <0>         0.0000
     27 H7         -0.0136   -2.9046    2.4197 H         1 <0>         0.0000
@<TRIPOS>BOND
     1    1    2 ar
     2    1    3 ar
     3    1   21 1
     4    2    6 ar
     5    2   22 1
     6    3    9 ar
     7    3   23 1
     8    4    5 ar
     9    4    8 ar
    10    4   24 1
    11    5   10 ar
    12    5   25 1
    13    6   12 ar
    14    6   26 1
    15    7   10 ar
    16    7   11 ar
    17    7   27 1
    18    8   11 ar
    19    8   14 1
    20    9   12 ar
    21    9   13 1
    22   10   18 1
    23   11   19 1
    24   12   20 1
    25   13   15 1
    26   13   16 2
    27   14   15 2
    28   14   17 1
    29   16   17 1
