@<TRIPOS>MOLECULE
*****
   36    38     0     0     0
SMALL
NO_CHARGES

@<TRIPOS>ATOM
      1 C1          2.7402   -2.9662   -1.1742 C.1       1 <0>         0.0000
      2 C2          0.0178    0.2140    4.2137 C.1       1 <0>         0.0000
      3 C3         -7.8633    2.1916    5.1904 C.ar      1 <0>         0.0000
      4 C4         -8.6778    1.2828    4.5089 C.ar      1 <0>         0.0000
      5 C5          2.1725   -1.7898    0.9146 C.ar      1 <0>         0.0000
      6 C6          0.3986   -2.4569   -0.6142 C.ar      1 <0>         0.0000
      7 C7         -6.4842    1.9996    5.1972 C.ar      1 <0>         0.0000
      8 C8          1.2322   -1.2415    1.7773 C.ar      1 <0>         0.0000
      9 C9         -0.5364   -1.9073    0.2533 C.ar      1 <0>         0.0000
     10 C10        -8.1037    0.1936    3.8503 C.ar      1 <0>         0.0000
     11 C11         1.7643   -2.4006   -0.2858 C.ar      1 <0>         0.0000
     12 C12        -5.9025    0.9066    4.5282 C.ar      1 <0>         0.0000
     13 C13        -0.1452   -1.2891    1.4629 C.ar      1 <0>         0.0000
     14 C14        -6.7178   -0.0231    3.8417 C.ar      1 <0>         0.0000
     15 C15        -4.4362    0.7783    4.5894 C.2       1 <0>         0.0000
     16 C16        -2.4396    0.3403    4.0900 C.2       1 <0>         0.0000
     17 C17        -1.2118   -0.7481    2.2909 C.2       1 <0>         0.0000
     18 C18        -1.1785   -0.0925    3.4863 C.2       1 <0>         0.0000
     19 C19        -6.1720   -1.2364    3.1234 C.3       1 <0>         0.0000
     20 N1          3.5307   -3.4263   -1.8963 N.1       1 <0>         0.0000
     21 N2          0.9904    0.4616    4.8055 N.1       1 <0>         0.0000
     22 N3         -3.6494    0.1706    3.6266 N.2       1 <0>         0.0000
     23 N4         -3.7422    1.2862    5.5952 N.2       1 <0>         0.0000
     24 O1         -2.4068    1.0011    5.2605 O.3       1 <0>         0.0000
     25 H1         -8.2969    3.0432    5.7073 H         1 <0>         0.0000
     26 H2         -9.7561    1.4187    4.4912 H         1 <0>         0.0000
     27 H3          3.2283   -1.7495    1.1633 H         1 <0>         0.0000
     28 H4          0.0846   -2.9281   -1.5400 H         1 <0>         0.0000
     29 H5         -5.8373    2.7000    5.7159 H         1 <0>         0.0000
     30 H6          1.5756   -0.7786    2.6929 H         1 <0>         0.0000
     31 H7         -1.5914   -1.9526   -0.0035 H         1 <0>         0.0000
     32 H8         -8.7461   -0.5141    3.3318 H         1 <0>         0.0000
     33 H9         -2.2154   -0.8843    1.8944 H         1 <0>         0.0000
     34 H10        -5.6295   -0.9509    2.2178 H         1 <0>         0.0000
     35 H11        -5.4686   -1.7962    3.7458 H         1 <0>         0.0000
     36 H12        -6.9890   -1.9056    2.8413 H         1 <0>         0.0000
@<TRIPOS>BOND
     1    1   11 1
     2    1   20 3
     3    2   18 1
     4    2   21 3
     5    3    4 ar
     6    3    7 ar
     7    3   25 1
     8    4   10 ar
     9    4   26 1
    10    5    8 ar
    11    5   11 ar
    12    5   27 1
    13    6    9 ar
    14    6   11 ar
    15    6   28 1
    16    7   12 ar
    17    7   29 1
    18    8   13 ar
    19    8   30 1
    20    9   13 ar
    21    9   31 1
    22   10   14 ar
    23   10   32 1
    24   12   14 ar
    25   12   15 1
    26   13   17 1
    27   14   19 1
    28   15   22 1
    29   15   23 2
    30   16   18 1
    31   16   22 2
    32   16   24 1
    33   17   18 2
    34   17   33 1
    35   19   34 1
    36   19   35 1
    37   19   36 1
    38   23   24 1
