@<TRIPOS>MOLECULE
*****
   27    28     0     0     0
SMALL
NO_CHARGES

@<TRIPOS>ATOM
      1 C1         -2.0197    1.5728    1.4232 C.ar      1 <0>         0.0000
      2 C2         -1.6951    2.3939    0.3368 C.ar      1 <0>         0.0000
      3 C3         -1.4552    0.3003    1.5054 C.ar      1 <0>         0.0000
      4 C4         -0.8204    1.9330   -0.6444 C.ar      1 <0>         0.0000
      5 C5         -0.5642   -0.1822    0.5355 C.ar      1 <0>         0.0000
      6 C6         -0.2474    0.6518   -0.5530 C.ar      1 <0>         0.0000
      7 C7          0.2716   -2.2417   -0.6553 C.3       1 <0>         0.0000
      8 C8          1.3106   -1.5243   -1.5107 C.3       1 <0>         0.0000
      9 C9          0.0463   -1.5608    0.7056 C.3       1 <0>         0.0000
     10 C10         1.3212   -1.4644    1.5724 C.3       1 <0>         0.0000
     11 C11         1.9807   -2.8075    1.8571 C.3       1 <0>         0.0000
     12 O1          3.0197   -2.5844    2.8175 O.3       1 <0>         0.0000
     13 S1          0.8463    0.2110   -1.8893 S.3       1 <0>         0.0000
     14 H1         -2.7056    1.9193    2.1914 H         1 <0>         0.0000
     15 H2         -2.1252    3.3883    0.2496 H         1 <0>         0.0000
     16 H3         -1.7054   -0.3462    2.3450 H         1 <0>         0.0000
     17 H4         -0.5764    2.5687   -1.4926 H         1 <0>         0.0000
     18 H5         -0.6804   -2.2834   -1.1956 H         1 <0>         0.0000
     19 H6          0.5994   -3.2770   -0.5085 H         1 <0>         0.0000
     20 H7          2.2903   -1.5289   -1.0267 H         1 <0>         0.0000
     21 H8          1.4152   -2.0128   -2.4830 H         1 <0>         0.0000
     22 H9         -0.6790   -2.1729    1.2560 H         1 <0>         0.0000
     23 H10         1.0549   -1.0092    2.5321 H         1 <0>         0.0000
     24 H11         2.0505   -0.7909    1.1100 H         1 <0>         0.0000
     25 H12         1.2328   -3.5147    2.2501 H         1 <0>         0.0000
     26 H13         2.3994   -3.2409    0.9373 H         1 <0>         0.0000
     27 H14         3.4737   -3.4262    2.9765 H         1 <0>         0.0000
@<TRIPOS>BOND
     1    1    2 ar
     2    1    3 ar
     3    1   14 1
     4    2    4 ar
     5    2   15 1
     6    3    5 ar
     7    3   16 1
     8    4    6 ar
     9    4   17 1
    10    5    6 ar
    11    5    9 1
    12    6   13 1
    13    7    8 1
    14    7    9 1
    15    7   18 1
    16    7   19 1
    17    8   13 1
    18    8   20 1
    19    8   21 1
    20    9   10 1
    21    9   22 1
    22   10   11 1
    23   10   23 1
    24   10   24 1
    25   11   12 1
    26   11   25 1
    27   11   26 1
    28   12   27 1
