@<TRIPOS>MOLECULE
*****
   28    29     0     0     0
SMALL
NO_CHARGES

@<TRIPOS>ATOM
      1 C1          1.8275    0.5246   -3.2073 C.2       1 <0>         0.0000
      2 C2          1.5428   -0.0759   -4.4893 C.2       1 <0>         0.0000
      3 C3          0.8929    0.0617   -2.3271 C.2       1 <0>         0.0000
      4 C4          0.4428   -0.8676   -4.2926 C.2       1 <0>         0.0000
      5 C5          0.6230   -0.6078    1.3539 C.3       1 <0>         0.0000
      6 C6         -0.7832   -0.0496    1.5464 C.3       1 <0>         0.0000
      7 C7         -0.7652    0.8650   -0.6242 C.3       1 <0>         0.0000
      8 C8          0.6526    0.3273   -0.8800 C.3       1 <0>         0.0000
      9 C9          2.3119    0.1403   -5.7603 C.3       1 <0>         0.0000
     10 C10        -0.3638   -1.7567   -5.1756 C.3       1 <0>         0.0000
     11 N1          0.8229   -0.8936   -0.0713 N.3       1 <0>         0.0000
     12 O1          0.0360   -0.7918   -2.9788 O.3       1 <0>         0.0000
     13 O2         -0.9771    1.1279    0.7614 O.3       1 <0>         0.0000
     14 H1          2.6292    1.2161   -2.9777 H         1 <0>         0.0000
     15 H2          1.3507    0.1243    1.7486 H         1 <0>         0.0000
     16 H3          0.7301   -1.5379    1.9230 H         1 <0>         0.0000
     17 H4         -1.5239   -0.8130    1.2643 H         1 <0>         0.0000
     18 H5         -0.9499    0.2440    2.5862 H         1 <0>         0.0000
     19 H6         -0.9112    1.8136   -1.1462 H         1 <0>         0.0000
     20 H7         -1.4982    0.1329   -0.9906 H         1 <0>         0.0000
     21 H8          1.3630    1.1185   -0.5804 H         1 <0>         0.0000
     22 H9          3.3599   -0.1599   -5.6469 H         1 <0>         0.0000
     23 H10         1.8911   -0.4353   -6.5892 H         1 <0>         0.0000
     24 H11         2.3059    1.1964   -6.0537 H         1 <0>         0.0000
     25 H12        -0.3543   -2.7910   -4.8134 H         1 <0>         0.0000
     26 H13        -1.4093   -1.4309   -5.2201 H         1 <0>         0.0000
     27 H14         0.0389   -1.7474   -6.1909 H         1 <0>         0.0000
     28 H15         1.7539   -1.2722   -0.2309 H         1 <0>         0.0000
@<TRIPOS>BOND
     1    1    2 1
     2    1    3 2
     3    1   14 1
     4    2    4 2
     5    2    9 1
     6    3    8 1
     7    3   12 1
     8    4   10 1
     9    4   12 1
    10    5    6 1
    11    5   11 1
    12    5   15 1
    13    5   16 1
    14    6   13 1
    15    6   17 1
    16    6   18 1
    17    7    8 1
    18    7   13 1
    19    7   19 1
    20    7   20 1
    21    8   11 1
    22    8   21 1
    23    9   22 1
    24    9   23 1
    25    9   24 1
    26   10   25 1
    27   10   26 1
    28   10   27 1
    29   11   28 1
