@<TRIPOS>MOLECULE
*****
   39    41     0     0     0
SMALL
NO_CHARGES

@<TRIPOS>ATOM
      1 C1          1.5115   -3.5069   -0.6586 C.ar      1 <0>         0.0000
      2 C2          2.3695   -4.5096   -1.1356 C.ar      1 <0>         0.0000
      3 C3          0.4085   -3.8260    0.1405 C.ar      1 <0>         0.0000
      4 C4          2.1446   -5.8570   -0.8246 C.ar      1 <0>         0.0000
      5 C5         -4.3343   -9.6921    2.0089 C.2       1 <0>         0.0000
      6 C6          0.1782   -5.1656    0.4479 C.ar      1 <0>         0.0000
      7 C7         -4.1170   -8.8476    0.8629 C.2       1 <0>         0.0000
      8 C8          1.0377   -6.1467   -0.0389 C.ar      1 <0>         0.0000
      9 C9         -5.5182  -10.3633    1.8226 C.2       1 <0>         0.0000
     10 C10        -5.2034   -9.0387    0.0006 C.2       1 <0>         0.0000
     11 C11        -0.9445   -5.7006    1.2705 C.2       1 <0>         0.0000
     12 C12        -2.9852   -7.9584    0.6331 C.2       1 <0>         0.0000
     13 C13        -6.2132  -11.3574    2.6976 C.3       1 <0>         0.0000
     14 C14        -5.5089   -8.4180   -1.3244 C.3       1 <0>         0.0000
     15 C15        -7.3120  -10.3924    0.0441 C.3       1 <0>         0.0000
     16 C16        -1.9259   -7.9244    1.7585 C.3       1 <0>         0.0000
     17 N1         -6.0335   -9.9611    0.5881 N.pl3     1 <0>         0.0000
     18 N2         -0.7992   -7.0828    1.4056 N.am      1 <0>         0.0000
     19 O1         -1.8419   -5.0547    1.7840 O.2       1 <0>         0.0000
     20 O2         -2.8357   -7.2436   -0.3540 O.2       1 <0>         0.0000
     21 O3          0.0271   -8.6145   -0.5503 O.2       1 <0>         0.0000
     22 O4          1.4918   -8.3133    1.4737 O.2       1 <0>         0.0000
     23 S1          0.5230   -7.7608    0.5267 S.o2      1 <0>         0.0000
     24 H1          1.7092   -2.4699   -0.9149 H         1 <0>         0.0000
     25 H2          3.2201   -4.2399   -1.7551 H         1 <0>         0.0000
     26 H3         -0.2668   -3.0649    0.5196 H         1 <0>         0.0000
     27 H4          2.8047   -6.6389   -1.1871 H         1 <0>         0.0000
     28 H5         -3.6950   -9.8008    2.8753 H         1 <0>         0.0000
     29 H6         -7.2240  -11.0342    2.9744 H         1 <0>         0.0000
     30 H7         -6.2983  -12.3432    2.2234 H         1 <0>         0.0000
     31 H8         -5.6424  -11.4856    3.6201 H         1 <0>         0.0000
     32 H9         -5.5103   -9.1659   -2.1277 H         1 <0>         0.0000
     33 H10        -6.4912   -7.9303   -1.3234 H         1 <0>         0.0000
     34 H11        -4.7473   -7.6745   -1.5536 H         1 <0>         0.0000
     35 H12        -8.1236   -9.7267    0.3597 H         1 <0>         0.0000
     36 H13        -7.2694  -10.4004   -1.0459 H         1 <0>         0.0000
     37 H14        -7.5365  -11.4040    0.3848 H         1 <0>         0.0000
     38 H15        -1.5646   -8.9308    1.9836 H         1 <0>         0.0000
     39 H16        -2.3762   -7.5207    2.6696 H         1 <0>         0.0000
@<TRIPOS>BOND
     1    1    2 ar
     2    1    3 ar
     3    1   24 1
     4    2    4 ar
     5    2   25 1
     6    3    6 ar
     7    3   26 1
     8    4    8 ar
     9    4   27 1
    10    5    7 1
    11    5    9 2
    12    5   28 1
    13    6    8 ar
    14    6   11 1
    15    7   10 2
    16    7   12 1
    17    8   23 1
    18    9   13 1
    19    9   17 1
    20   10   14 1
    21   10   17 1
    22   11   18 am
    23   11   19 2
    24   12   16 1
    25   12   20 2
    26   13   29 1
    27   13   30 1
    28   13   31 1
    29   14   32 1
    30   14   33 1
    31   14   34 1
    32   15   17 1
    33   15   35 1
    34   15   36 1
    35   15   37 1
    36   16   18 1
    37   16   38 1
    38   16   39 1
    39   18   23 1
    40   21   23 2
    41   22   23 2
