@<TRIPOS>MOLECULE
*****
   22    23     0     0     0
SMALL
NO_CHARGES

@<TRIPOS>ATOM
      1 C1          2.8302    2.6039   -2.7451 C.2       1 <0>         0.0000
      2 C2          1.9496    1.4850   -2.8831 C.2       1 <0>         0.0000
      3 C3          2.3864    3.3500   -1.6696 C.2       1 <0>         0.0000
      4 C4          0.9900    1.5801   -1.8896 C.2       1 <0>         0.0000
      5 C5         -0.9515   -0.7701    0.5167 C.3       1 <0>         0.0000
      6 C6         -0.0774    0.3350    1.0787 C.3       1 <0>         0.0000
      7 C7          0.1708   -0.1884   -0.3152 C.3       1 <0>         0.0000
      8 C8         -0.1541    0.6715   -1.5278 C.3       1 <0>         0.0000
      9 N1          1.2653    2.7221   -1.1632 N.pl3     1 <0>         0.0000
     10 N2         -0.4459   -0.2088   -2.6676 N.3       1 <0>         0.0000
     11 H1          3.6863    2.8382   -3.3650 H         1 <0>         0.0000
     12 H2          2.0064    0.6881   -3.6119 H         1 <0>         0.0000
     13 H3          2.7615    4.2660   -1.2338 H         1 <0>         0.0000
     14 H4         -0.8348   -1.7740    0.9140 H         1 <0>         0.0000
     15 H5         -1.9727   -0.5089    0.2485 H         1 <0>         0.0000
     16 H6         -0.5325    1.3170    1.1887 H         1 <0>         0.0000
     17 H7          0.6376    0.0859    1.8569 H         1 <0>         0.0000
     18 H8          1.0510   -0.8111   -0.4533 H         1 <0>         0.0000
     19 H9         -1.0197    1.3052   -1.2509 H         1 <0>         0.0000
     20 H10         0.7509    3.0214   -0.3475 H         1 <0>         0.0000
     21 H11        -0.7362    0.3484   -3.4694 H         1 <0>         0.0000
     22 H12        -1.2182   -0.8260   -2.4239 H         1 <0>         0.0000
@<TRIPOS>BOND
     1    1    2 1
     2    1    3 2
     3    1   11 1
     4    2    4 2
     5    2   12 1
     6    3    9 1
     7    3   13 1
     8    4    8 1
     9    4    9 1
    10    5    6 1
    11    5    7 1
    12    5   14 1
    13    5   15 1
    14    6    7 1
    15    6   16 1
    16    6   17 1
    17    7    8 1
    18    7   18 1
    19    8   10 1
    20    8   19 1
    21    9   20 1
    22   10   21 1
    23   10   22 1
