@<TRIPOS>MOLECULE
*****
   23    23     0     0     0
SMALL
NO_CHARGES

@<TRIPOS>ATOM
      1 C1          3.7899   -0.5267   -0.4663 C.2       1 <0>         0.0000
      2 C2          4.7065    0.0956   -1.3705 C.2       1 <0>         0.0000
      3 C3          2.5570    0.0743   -0.4732 C.2       1 <0>         0.0000
      4 C4          4.2003    1.1590   -2.0730 C.2       1 <0>         0.0000
      5 C5          4.8503    2.0071   -3.1244 C.3       1 <0>         0.0000
      6 C6          1.2456    2.3066    3.2128 C.3       1 <0>         0.0000
      7 C7          1.3659   -0.2550    0.4008 C.3       1 <0>         0.0000
      8 C8          1.3133    1.8035    1.7721 C.3       1 <0>         0.0000
      9 N1          1.3619    0.3373    1.7433 N.3       1 <0>         0.0000
     10 S1          2.5374    1.4053   -1.6026 S.3       1 <0>         0.0000
     11 Br1         6.4975   -0.5363   -1.5856 Br        1 <0>         0.0000
     12 H1          4.0421   -1.3813    0.1530 H         1 <0>         0.0000
     13 H2          4.6961    1.5852   -4.1245 H         1 <0>         0.0000
     14 H3          4.4490    3.0243   -3.1229 H         1 <0>         0.0000
     15 H4          5.9276    2.0640   -2.9498 H         1 <0>         0.0000
     16 H5          0.3742    1.8908    3.7274 H         1 <0>         0.0000
     17 H6          2.1420    2.0144    3.7731 H         1 <0>         0.0000
     18 H7          1.1814    3.3994    3.2384 H         1 <0>         0.0000
     19 H8          0.4387    0.0435   -0.1008 H         1 <0>         0.0000
     20 H9          1.3212   -1.3429    0.5192 H         1 <0>         0.0000
     21 H10         2.1684    2.2714    1.2578 H         1 <0>         0.0000
     22 H11         0.4118    2.1138    1.2286 H         1 <0>         0.0000
     23 H12         2.1955    0.0261    2.2407 H         1 <0>         0.0000
@<TRIPOS>BOND
     1    1    2 1
     2    1    3 2
     3    1   12 1
     4    2    4 2
     5    2   11 1
     6    3    7 1
     7    3   10 1
     8    4    5 1
     9    4   10 1
    10    5   13 1
    11    5   14 1
    12    5   15 1
    13    6    8 1
    14    6   16 1
    15    6   17 1
    16    6   18 1
    17    7    9 1
    18    7   19 1
    19    7   20 1
    20    8    9 1
    21    8   21 1
    22    8   22 1
    23    9   23 1
