@<TRIPOS>MOLECULE
*****
   22    22     0     0     0
SMALL
NO_CHARGES

@<TRIPOS>ATOM
      1 C1          1.9016   -1.0394   -0.1778 C.ar      1 <0>         0.0000
      2 C2          0.8226   -0.4422    0.4718 C.ar      1 <0>         0.0000
      3 C3          2.9105   -1.6429    0.5844 C.ar      1 <0>         0.0000
      4 C4          0.7498   -0.4462    1.8709 C.ar      1 <0>         0.0000
      5 C5          2.8686   -1.6628    1.9803 C.ar      1 <0>         0.0000
      6 C6          1.7674   -1.0508    2.6187 C.ar      1 <0>         0.0000
      7 C7          4.9480   -1.2386    3.3747 C.3       1 <0>         0.0000
      8 C8          0.6806   -0.5257    4.6914 C.3       1 <0>         0.0000
      9 C9          3.9795   -2.2855    2.7943 C.3       1 <0>         0.0000
     10 O1          1.7779   -1.1001    3.9922 O.3       1 <0>         0.0000
     11 H1          1.9599   -1.0409   -1.2627 H         1 <0>         0.0000
     12 H2          0.0286    0.0297   -0.1014 H         1 <0>         0.0000
     13 H3          3.7538   -2.1142    0.0835 H         1 <0>         0.0000
     14 H4         -0.0978    0.0213    2.3592 H         1 <0>         0.0000
     15 H5          5.4194   -0.6583    2.5745 H         1 <0>         0.0000
     16 H6          5.7396   -1.7219    3.9583 H         1 <0>         0.0000
     17 H7          4.4169   -0.5432    4.0307 H         1 <0>         0.0000
     18 H8          0.8849   -0.6859    5.7512 H         1 <0>         0.0000
     19 H9         -0.2648   -1.0154    4.4262 H         1 <0>         0.0000
     20 H10         0.5998    0.5511    4.4967 H         1 <0>         0.0000
     21 H11         3.5507   -2.8687    3.6157 H         1 <0>         0.0000
     22 H12         4.5352   -2.9841    2.1594 H         1 <0>         0.0000
@<TRIPOS>BOND
     1    1    2 ar
     2    1    3 ar
     3    1   11 1
     4    2    4 ar
     5    2   12 1
     6    3    5 ar
     7    3   13 1
     8    4    6 ar
     9    4   14 1
    10    5    6 ar
    11    5    9 1
    12    6   10 1
    13    7    9 1
    14    7   15 1
    15    7   16 1
    16    7   17 1
    17    8   10 1
    18    8   18 1
    19    8   19 1
    20    8   20 1
    21    9   21 1
    22    9   22 1
