@<TRIPOS>MOLECULE
*****
   31    32     0     0     0
SMALL
NO_CHARGES

@<TRIPOS>ATOM
      1 C1          1.8583   -1.1793   -0.0085 C.ar      1 <0>         0.0000
      2 C2          0.7427   -0.4886    2.0032 C.ar      1 <0>         0.0000
      3 C3          0.7706   -0.5505    0.6060 C.ar      1 <0>         0.0000
      4 C4          2.9062   -1.7284    0.7386 C.ar      1 <0>         0.0000
      5 C5          1.7730   -1.0262    2.7820 C.ar      1 <0>         0.0000
      6 C6          2.8712   -1.6343    2.1433 C.ar      1 <0>         0.0000
      7 C7          3.7610   -3.6799    3.3776 C.2       1 <0>         0.0000
      8 C8         -1.0595   -0.7519   -1.2569 C.3       1 <0>         0.0000
      9 C9         -1.7710   -0.3325    0.0139 C.3       1 <0>         0.0000
     10 C10        -0.3269    0.0614   -0.2116 C.3       1 <0>         0.0000
     11 C11         4.0403   -2.4319    0.0256 C.3       1 <0>         0.0000
     12 C12         1.6760   -0.9685    4.2904 C.3       1 <0>         0.0000
     13 C13         3.9916   -2.2225    2.9664 C.3       1 <0>         0.0000
     14 O1          2.7723   -4.3290    3.1433 O.2       1 <0>         0.0000
     15 O2          4.7976   -4.2408    4.0764 O.3       1 <0>         0.0000
     16 H1          1.8803   -1.2525   -1.0937 H         1 <0>         0.0000
     17 H2         -0.1093   -0.0219    2.4928 H         1 <0>         0.0000
     18 H3         -0.7899   -1.7997   -1.3535 H         1 <0>         0.0000
     19 H4         -1.3354   -0.2660   -2.1884 H         1 <0>         0.0000
     20 H5         -2.5323    0.4396   -0.0504 H         1 <0>         0.0000
     21 H6         -1.9678   -1.1046    0.7520 H         1 <0>         0.0000
     22 H7         -0.1655    1.1080   -0.4664 H         1 <0>         0.0000
     23 H8          5.0027   -1.9305    0.1868 H         1 <0>         0.0000
     24 H9          4.1477   -3.4681    0.3656 H         1 <0>         0.0000
     25 H10         3.8642   -2.4562   -1.0526 H         1 <0>         0.0000
     26 H11         1.7161   -1.9703    4.7320 H         1 <0>         0.0000
     27 H12         2.4883   -0.3790    4.7332 H         1 <0>         0.0000
     28 H13         0.7348   -0.5083    4.6012 H         1 <0>         0.0000
     29 H14         4.1438   -1.6467    3.8864 H         1 <0>         0.0000
     30 H15         4.9415   -2.1754    2.4227 H         1 <0>         0.0000
     31 H16         5.5153   -3.5929    4.1810 H         1 <0>         0.0000
@<TRIPOS>BOND
     1    1    3 ar
     2    1    4 ar
     3    1   16 1
     4    2    3 ar
     5    2    5 ar
     6    2   17 1
     7    3   10 1
     8    4    6 ar
     9    4   11 1
    10    5    6 ar
    11    5   12 1
    12    6   13 1
    13    7   13 1
    14    7   14 2
    15    7   15 1
    16    8    9 1
    17    8   10 1
    18    8   18 1
    19    8   19 1
    20    9   10 1
    21    9   20 1
    22    9   21 1
    23   10   22 1
    24   11   23 1
    25   11   24 1
    26   11   25 1
    27   12   26 1
    28   12   27 1
    29   12   28 1
    30   13   29 1
    31   13   30 1
    32   15   31 1
