@<TRIPOS>MOLECULE
*****
   25    27     0     0     0
SMALL
NO_CHARGES

@<TRIPOS>ATOM
      1 C1          1.9665    0.4399   -1.3475 C.ar      1 <0>         0.0000
      2 C2          2.5213    1.7200   -1.3588 C.ar      1 <0>         0.0000
      3 C3          0.8238    2.5417    0.2195 C.ar      1 <0>         0.0000
      4 C4         -0.8895    0.6785    0.8949 C.2       1 <0>         0.0000
      5 C5          0.2510    1.2556    0.2373 C.ar      1 <0>         0.0000
      6 C6          0.8444    0.2192   -0.5429 C.ar      1 <0>         0.0000
      7 C7          1.9404    2.7311   -0.5772 C.ar      1 <0>         0.0000
      8 C8         -0.9525   -0.6438    0.5141 C.2       1 <0>         0.0000
      9 C9         -1.8915   -1.7414    0.9213 C.3       1 <0>         0.0000
     10 C10         0.2209   -2.1737   -1.0923 C.3       1 <0>         0.0000
     11 C11        -0.5741   -3.2751   -0.3938 C.3       1 <0>         0.0000
     12 N1          0.1064   -0.9364   -0.3336 N.pl3     1 <0>         0.0000
     13 N2         -1.9259   -2.7819   -0.1169 N.3       1 <0>         0.0000
     14 F1          2.5152    3.9697   -0.6150 F         1 <0>         0.0000
     15 H1          2.4027   -0.3515   -1.9502 H         1 <0>         0.0000
     16 H2          3.3936    1.9528   -1.9612 H         1 <0>         0.0000
     17 H3          0.4178    3.3672    0.7965 H         1 <0>         0.0000
     18 H4         -1.5741    1.1750    1.5707 H         1 <0>         0.0000
     19 H5         -1.5644   -2.1448    1.8983 H         1 <0>         0.0000
     20 H6         -2.8960   -1.3303    1.0557 H         1 <0>         0.0000
     21 H7          1.2761   -2.4576   -1.1629 H         1 <0>         0.0000
     22 H8         -0.1677   -2.0220   -2.1071 H         1 <0>         0.0000
     23 H9         -0.6363   -4.1418   -1.0579 H         1 <0>         0.0000
     24 H10        -0.0399   -3.5852    0.5229 H         1 <0>         0.0000
     25 H11        -2.5131   -3.5494    0.2003 H         1 <0>         0.0000
@<TRIPOS>BOND
     1    1    2 ar
     2    1    6 ar
     3    1   15 1
     4    2    7 ar
     5    2   16 1
     6    3    5 ar
     7    3    7 ar
     8    3   17 1
     9    4    5 1
    10    4    8 2
    11    4   18 1
    12    5    6 ar
    13    6   12 1
    14    7   14 1
    15    8    9 1
    16    8   12 1
    17    9   13 1
    18    9   19 1
    19    9   20 1
    20   10   11 1
    21   10   12 1
    22   10   21 1
    23   10   22 1
    24   11   13 1
    25   11   23 1
    26   11   24 1
    27   13   25 1
