@<TRIPOS>MOLECULE
*****
   47    50     0     0     0
SMALL
NO_CHARGES

@<TRIPOS>ATOM
      1 C1          6.2810   -0.2693   -0.6952 C.1       1 <0>         0.0000
      2 C2          8.1239    1.1907   -3.5694 C.ar      1 <0>         0.0000
      3 C3          7.2938    0.8578   -4.6479 C.ar      1 <0>         0.0000
      4 C4          7.7492    0.8210   -2.2814 C.ar      1 <0>         0.0000
      5 C5          6.1013    0.1746   -4.4309 C.ar      1 <0>         0.0000
      6 C6          3.6804   -1.6737   -3.8523 C.2       1 <0>         0.0000
      7 C7          2.5540   -2.1467   -3.1065 C.2       1 <0>         0.0000
      8 C8          6.5505    0.1182   -2.0533 C.ar      1 <0>         0.0000
      9 C9          5.6983   -0.2128   -3.1379 C.ar      1 <0>         0.0000
     10 C10         4.4446   -0.9341   -2.9788 C.2       1 <0>         0.0000
     11 C11         2.6979   -1.6692   -1.8297 C.2       1 <0>         0.0000
     12 C12         0.3544    1.8293    0.9705 C.3       1 <0>         0.0000
     13 C13         0.5514    1.7044   -0.5639 C.3       1 <0>         0.0000
     14 C14        -1.5692    0.1595    1.2023 C.3       1 <0>         0.0000
     15 C15         0.8751   -0.6213    1.2751 C.3       1 <0>         0.0000
     16 C16        -0.9380   -0.2962   -1.1243 C.3       1 <0>         0.0000
     17 C17        -0.1218    0.5069    1.5963 C.3       1 <0>         0.0000
     18 C18         0.5151    0.2323   -1.0029 C.3       1 <0>         0.0000
     19 C19        -3.2528   -0.0034   -0.5051 C.3       1 <0>         0.0000
     20 C20         1.8798   -1.7993   -0.5882 C.3       1 <0>         0.0000
     21 N1          6.1556   -0.5620    0.4259 N.1       1 <0>         0.0000
     22 N2         -1.8737    0.3602   -0.2130 N.3       1 <0>         0.0000
     23 N3          1.3878   -0.5212   -0.0945 N.3       1 <0>         0.0000
     24 O1          3.8450   -0.9307   -1.7464 O.3       1 <0>         0.0000
     25 H1          9.0510    1.7323   -3.7328 H         1 <0>         0.0000
     26 H2          7.5716    1.1452   -5.6584 H         1 <0>         0.0000
     27 H3          8.3817    1.0614   -1.4325 H         1 <0>         0.0000
     28 H4          5.4514   -0.0485   -5.2714 H         1 <0>         0.0000
     29 H5          3.9070   -1.8779   -4.8902 H         1 <0>         0.0000
     30 H6          1.7407   -2.7638   -3.4654 H         1 <0>         0.0000
     31 H7          1.3028    2.1071    1.4425 H         1 <0>         0.0000
     32 H8         -0.3632    2.6234    1.2008 H         1 <0>         0.0000
     33 H9         -0.2232    2.2607   -1.0978 H         1 <0>         0.0000
     34 H10         1.5233    2.1182   -0.8475 H         1 <0>         0.0000
     35 H11        -1.7823   -0.8814    1.5204 H         1 <0>         0.0000
     36 H12        -2.2512    0.8053    1.7693 H         1 <0>         0.0000
     37 H13         1.7276   -0.5714    1.9655 H         1 <0>         0.0000
     38 H14         0.3791   -1.5923    1.4536 H         1 <0>         0.0000
     39 H15        -1.2927   -0.0946   -2.1415 H         1 <0>         0.0000
     40 H16        -0.9459   -1.3986   -1.0047 H         1 <0>         0.0000
     41 H17        -0.1301    0.6136    2.6875 H         1 <0>         0.0000
     42 H18         0.9659    0.1526   -1.9963 H         1 <0>         0.0000
     43 H19        -3.4914    0.2429   -1.5450 H         1 <0>         0.0000
     44 H20        -3.9302    0.5649    0.1413 H         1 <0>         0.0000
     45 H21        -3.4609   -1.0805   -0.3513 H         1 <0>         0.0000
     46 H22         1.0777   -2.5326   -0.7946 H         1 <0>         0.0000
     47 H23         2.5069   -2.2334    0.2002 H         1 <0>         0.0000
@<TRIPOS>BOND
     1    1    8 1
     2    1   21 3
     3    2    3 ar
     4    2    4 ar
     5    2   25 1
     6    3    5 ar
     7    3   26 1
     8    4    8 ar
     9    4   27 1
    10    5    9 ar
    11    5   28 1
    12    6    7 1
    13    6   10 2
    14    6   29 1
    15    7   11 2
    16    7   30 1
    17    8    9 ar
    18    9   10 1
    19   10   24 1
    20   11   20 1
    21   11   24 1
    22   12   13 1
    23   12   17 1
    24   12   31 1
    25   12   32 1
    26   13   18 1
    27   13   33 1
    28   13   34 1
    29   14   17 1
    30   14   22 1
    31   14   35 1
    32   14   36 1
    33   15   17 1
    34   15   23 1
    35   15   37 1
    36   15   38 1
    37   16   18 1
    38   16   22 1
    39   16   39 1
    40   16   40 1
    41   17   41 1
    42   18   23 1
    43   18   42 1
    44   19   22 1
    45   19   43 1
    46   19   44 1
    47   19   45 1
    48   20   23 1
    49   20   46 1
    50   20   47 1
