@<TRIPOS>MOLECULE
*****
   35    35     0     0     0
SMALL
NO_CHARGES

@<TRIPOS>ATOM
      1 C1          1.4245   -1.5452   -0.1758 C.ar      1 <0>         0.0000
      2 C2          0.4811   -0.8458    0.5704 C.ar      1 <0>         0.0000
      3 C3          2.5504   -2.0802    0.4543 C.ar      1 <0>         0.0000
      4 C4          0.6359   -0.6813    1.9537 C.ar      1 <0>         0.0000
      5 C5          2.7469   -1.9502    1.8343 C.ar      1 <0>         0.0000
      6 C6          1.7597   -1.2580    2.5752 C.ar      1 <0>         0.0000
      7 C7         -1.7771   -0.4819    2.7064 C.3       1 <0>         0.0000
      8 C8         -0.4038    1.6006    2.2388 C.3       1 <0>         0.0000
      9 C9          4.8233   -1.3254    3.1234 C.3       1 <0>         0.0000
     10 C10         4.9278   -3.2619    1.5345 C.3       1 <0>         0.0000
     11 C11         1.2166   -2.0102    4.7625 C.3       1 <0>         0.0000
     12 C12        -0.3714    0.1447    2.7407 C.3       1 <0>         0.0000
     13 C13         4.0212   -2.4839    2.5008 C.3       1 <0>         0.0000
     14 O1          3.5913   -3.4057    3.5322 O.3       1 <0>         0.0000
     15 O2          1.9265   -1.0722    3.9393 O.3       1 <0>         0.0000
     16 H1          1.2948   -1.6671   -1.2481 H         1 <0>         0.0000
     17 H2         -0.3822   -0.4105    0.0729 H         1 <0>         0.0000
     18 H3          3.2807   -2.6050   -0.1501 H         1 <0>         0.0000
     19 H4         -2.1817   -0.4980    1.6883 H         1 <0>         0.0000
     20 H5         -2.4703    0.0930    3.3308 H         1 <0>         0.0000
     21 H6         -1.7626   -1.5139    3.0720 H         1 <0>         0.0000
     22 H7         -0.7540    1.6616    1.2027 H         1 <0>         0.0000
     23 H8          0.5927    2.0512    2.2831 H         1 <0>         0.0000
     24 H9         -1.0806    2.2028    2.8555 H         1 <0>         0.0000
     25 H10         5.7373   -1.7105    3.5945 H         1 <0>         0.0000
     26 H11         5.1237   -0.6100    2.3514 H         1 <0>         0.0000
     27 H12         4.2276   -0.8062    3.8741 H         1 <0>         0.0000
     28 H13         5.7892   -3.6478    2.0909 H         1 <0>         0.0000
     29 H14         5.3164   -2.6320    0.7287 H         1 <0>         0.0000
     30 H15         4.3995   -4.1156    1.1022 H         1 <0>         0.0000
     31 H16         1.4437   -1.7386    5.7963 H         1 <0>         0.0000
     32 H17         1.5605   -3.0267    4.5595 H         1 <0>         0.0000
     33 H18         0.1343   -1.9375    4.5997 H         1 <0>         0.0000
     34 H19        -0.0358    0.1742    3.7792 H         1 <0>         0.0000
     35 H20         4.3684   -3.6127    4.0764 H         1 <0>         0.0000
@<TRIPOS>BOND
     1    1    2 ar
     2    1    3 ar
     3    1   16 1
     4    2    4 ar
     5    2   17 1
     6    3    5 ar
     7    3   18 1
     8    4    6 ar
     9    4   12 1
    10    5    6 ar
    11    5   13 1
    12    6   15 1
    13    7   12 1
    14    7   19 1
    15    7   20 1
    16    7   21 1
    17    8   12 1
    18    8   22 1
    19    8   23 1
    20    8   24 1
    21    9   13 1
    22    9   25 1
    23    9   26 1
    24    9   27 1
    25   10   13 1
    26   10   28 1
    27   10   29 1
    28   10   30 1
    29   11   15 1
    30   11   31 1
    31   11   32 1
    32   11   33 1
    33   12   34 1
    34   13   14 1
    35   14   35 1
