@<TRIPOS>MOLECULE
*****
   38    39     0     0     0
SMALL
NO_CHARGES

@<TRIPOS>ATOM
      1 C1          5.5635   -0.2434    5.4429 C.ar      1 <0>         0.0000
      2 C2          5.3175    0.5924    4.3472 C.ar      1 <0>         0.0000
      3 C3          3.7735   -1.7027    4.7168 C.ar      1 <0>         0.0000
      4 C4          4.7966   -1.3950    5.6385 C.ar      1 <0>         0.0000
      5 C5          4.3031    0.2878    3.4372 C.ar      1 <0>         0.0000
      6 C6          3.5174   -0.8853    3.6244 C.ar      1 <0>         0.0000
      7 C7          5.0018   -2.3292    6.7834 C.2       1 <0>         0.0000
      8 C8         -0.3793   -0.8951    3.2013 C.3       1 <0>         0.0000
      9 C9         -0.2007   -1.1420    1.6736 C.3       1 <0>         0.0000
     10 C10         0.5872   -1.8755    3.9088 C.3       1 <0>         0.0000
     11 C11         0.8373   -2.2812    1.5540 C.3       1 <0>         0.0000
     12 C12         1.6463   -2.2041    2.8481 C.3       1 <0>         0.0000
     13 C13         7.4808   -2.6274    7.1816 C.3       1 <0>         0.0000
     14 C14         4.7440    2.2194    2.1082 C.3       1 <0>         0.0000
     15 C15         6.1534   -2.0899    7.7508 C.3       1 <0>         0.0000
     16 O1          4.2772   -3.3124    6.9307 O.2       1 <0>         0.0000
     17 O2          2.5686   -1.1058    2.6749 O.3       1 <0>         0.0000
     18 O3          3.9854    1.0380    2.3482 O.3       1 <0>         0.0000
     19 H1          6.3560    0.0248    6.1329 H         1 <0>         0.0000
     20 H2          5.9212    1.4826    4.2138 H         1 <0>         0.0000
     21 H3          3.1962   -2.5997    4.9012 H         1 <0>         0.0000
     22 H4         -0.1185    0.1369    3.4506 H         1 <0>         0.0000
     23 H5         -1.4112   -1.0522    3.5281 H         1 <0>         0.0000
     24 H6         -1.1426   -1.4040    1.1829 H         1 <0>         0.0000
     25 H7          0.1778   -0.2397    1.1866 H         1 <0>         0.0000
     26 H8          1.0183   -1.4661    4.8252 H         1 <0>         0.0000
     27 H9          0.0748   -2.8062    4.1788 H         1 <0>         0.0000
     28 H10         0.3421   -3.2581    1.5188 H         1 <0>         0.0000
     29 H11         1.4787   -2.1967    0.6731 H         1 <0>         0.0000
     30 H12         2.2086   -3.1219    3.0508 H         1 <0>         0.0000
     31 H13         7.3987   -3.6970    6.9656 H         1 <0>         0.0000
     32 H14         7.7589   -2.1165    6.2549 H         1 <0>         0.0000
     33 H15         8.2912   -2.4875    7.9042 H         1 <0>         0.0000
     34 H16         4.3303    2.6567    1.1988 H         1 <0>         0.0000
     35 H17         5.8046    1.9878    1.9513 H         1 <0>         0.0000
     36 H18         4.6430    2.9337    2.9345 H         1 <0>         0.0000
     37 H19         6.2520   -1.0272    7.9933 H         1 <0>         0.0000
     38 H20         5.9047   -2.6218    8.6725 H         1 <0>         0.0000
@<TRIPOS>BOND
     1    1    2 ar
     2    1    4 ar
     3    1   19 1
     4    2    5 ar
     5    2   20 1
     6    3    4 ar
     7    3    6 ar
     8    3   21 1
     9    4    7 1
    10    5    6 ar
    11    5   18 1
    12    6   17 1
    13    7   15 1
    14    7   16 2
    15    8    9 1
    16    8   10 1
    17    8   22 1
    18    8   23 1
    19    9   11 1
    20    9   24 1
    21    9   25 1
    22   10   12 1
    23   10   26 1
    24   10   27 1
    25   11   12 1
    26   11   28 1
    27   11   29 1
    28   12   17 1
    29   12   30 1
    30   13   15 1
    31   13   31 1
    32   13   32 1
    33   13   33 1
    34   14   18 1
    35   14   34 1
    36   14   35 1
    37   14   36 1
    38   15   37 1
    39   15   38 1
