@<TRIPOS>MOLECULE
*****
   25    26     0     0     0
SMALL
NO_CHARGES

@<TRIPOS>ATOM
      1 C1         -3.4208   -0.7940   -2.6554 C.ar      1 <0>         0.0000
      2 C2         -4.7377   -1.1035   -3.0054 C.ar      1 <0>         0.0000
      3 C3         -4.3663   -0.1198   -5.2035 C.ar      1 <0>         0.0000
      4 C4         -2.5582   -0.1585   -3.5550 C.ar      1 <0>         0.0000
      5 C5         -5.1862   -0.7533   -4.2743 C.ar      1 <0>         0.0000
      6 C6         -3.0571    0.1588   -4.8267 C.ar      1 <0>         0.0000
      7 C7          2.7437    1.6178   -2.9677 C.3       1 <0>         0.0000
      8 C8          2.2436    3.0470   -2.7384 C.3       1 <0>         0.0000
      9 C9          0.5365    1.4910   -2.5278 C.3       1 <0>         0.0000
     10 C10        -0.8092    1.4323   -3.2257 C.3       1 <0>         0.0000
     11 O1          1.5478    0.9279   -3.3375 O.3       1 <0>         0.0000
     12 O2          0.8839    2.8624   -2.3103 O.3       1 <0>         0.0000
     13 O3         -1.2575    0.0671   -3.1847 O.3       1 <0>         0.0000
     14 F1         -6.4645   -1.0400   -4.6286 F         1 <0>         0.0000
     15 F2         -2.2390    0.7509   -5.7308 F         1 <0>         0.0000
     16 H1         -3.0327   -1.0488   -1.6740 H         1 <0>         0.0000
     17 H2         -5.4080   -1.6000   -2.3114 H         1 <0>         0.0000
     18 H3         -4.7253    0.1371   -6.1943 H         1 <0>         0.0000
     19 H4          3.4605    1.5209   -3.7849 H         1 <0>         0.0000
     20 H5          3.1697    1.1868   -2.0506 H         1 <0>         0.0000
     21 H6          2.7964    3.5780   -1.9579 H         1 <0>         0.0000
     22 H7          2.2559    3.6369   -3.6621 H         1 <0>         0.0000
     23 H8          0.4930    0.9719   -1.5570 H         1 <0>         0.0000
     24 H9         -0.7013    1.7861   -4.2540 H         1 <0>         0.0000
     25 H10        -1.5137    2.0744   -2.6849 H         1 <0>         0.0000
@<TRIPOS>BOND
     1    1    2 ar
     2    1    4 ar
     3    1   16 1
     4    2    5 ar
     5    2   17 1
     6    3    5 ar
     7    3    6 ar
     8    3   18 1
     9    4    6 ar
    10    4   13 1
    11    5   14 1
    12    6   15 1
    13    7    8 1
    14    7   11 1
    15    7   19 1
    16    7   20 1
    17    8   12 1
    18    8   21 1
    19    8   22 1
    20    9   10 1
    21    9   12 1
    22    9   11 1
    23    9   23 1
    24   10   13 1
    25   10   24 1
    26   10   25 1
