@<TRIPOS>MOLECULE
*****
   25    25     0     0     0
SMALL
NO_CHARGES

@<TRIPOS>ATOM
      1 C1          1.7954   -1.1434   -0.1504 C.ar      1 <0>         0.0000
      2 C2          0.7463   -0.4985    0.5045 C.ar      1 <0>         0.0000
      3 C3          1.7192   -1.1140    2.6422 C.ar      1 <0>         0.0000
      4 C4          2.8089   -1.8007    0.5604 C.ar      1 <0>         0.0000
      5 C5          0.7227   -0.4890    1.8967 C.ar      1 <0>         0.0000
      6 C6          2.7491   -1.7711    1.9688 C.ar      1 <0>         0.0000
      7 C7          3.8640   -2.4621   -0.3145 C.2       1 <0>         0.0000
      8 N1          0.0326    1.8611    3.0877 N.pl3     1 <0>         0.0000
      9 N2          3.8227   -4.1444    2.7020 N.pl3     1 <0>         0.0000
     10 O1          4.2919   -1.8840   -1.2882 O.2       1 <0>         0.0000
     11 O2         -1.7054    0.5219    1.7904 O.2       1 <0>         0.0000
     12 O3         -0.8014   -0.3420    4.0424 O.2       1 <0>         0.0000
     13 O4          5.3546   -2.1456    2.4813 O.2       1 <0>         0.0000
     14 O5          3.6778   -2.1788    4.4114 O.2       1 <0>         0.0000
     15 O6          4.2121   -3.7296   -0.0401 O.3       1 <0>         0.0000
     16 S1         -0.6238    0.3390    2.7594 S.o2      1 <0>         0.0000
     17 S2          4.0393   -2.4640    3.0245 S.o2      1 <0>         0.0000
     18 H1          1.8462   -1.1443   -1.2341 H         1 <0>         0.0000
     19 H2         -0.0488   -0.0165   -0.0555 H         1 <0>         0.0000
     20 H3          1.6994   -1.0984    3.7269 H         1 <0>         0.0000
     21 H4         -0.4962    2.5847    2.6026 H         1 <0>         0.0000
     22 H5          0.0568    2.0216    4.0939 H         1 <0>         0.0000
     23 H6          4.7143   -4.6096    2.8961 H         1 <0>         0.0000
     24 H7          3.1042   -4.5263    3.3216 H         1 <0>         0.0000
     25 H8          3.8377   -4.0444    0.8163 H         1 <0>         0.0000
@<TRIPOS>BOND
     1    1    2 ar
     2    1    4 ar
     3    1   18 1
     4    2    5 ar
     5    2   19 1
     6    3    5 ar
     7    3    6 ar
     8    3   20 1
     9    4    6 ar
    10    4    7 1
    11    5   16 1
    12    6   17 1
    13    7   10 2
    14    7   15 1
    15    8   16 1
    16    8   21 1
    17    8   22 1
    18    9   17 1
    19    9   23 1
    20    9   24 1
    21   11   16 2
    22   12   16 2
    23   13   17 2
    24   14   17 2
    25   15   25 1
