@<TRIPOS>MOLECULE
*****
   16    16     0     0     0
SMALL
NO_CHARGES

@<TRIPOS>ATOM
      1 C1          2.3321   -1.1252   -0.2726 C.ar      1 <0>         0.0000
      2 C2          2.0959   -1.2794    2.4856 C.ar      1 <0>         0.0000
      3 C3          1.2250   -0.5233    0.3457 C.ar      1 <0>         0.0000
      4 C4          1.1097   -0.6055    1.7530 C.ar      1 <0>         0.0000
      5 C5          3.1884   -1.8686    1.8505 C.ar      1 <0>         0.0000
      6 C6          3.3119   -1.7927    0.4551 C.ar      1 <0>         0.0000
      7 C7          0.2095    0.1822   -0.4800 C.2       1 <0>         0.0000
      8 O1         -0.7720    0.7711   -0.0731 O.2       1 <0>         0.0000
      9 O2          0.0487   -0.0359    2.3779 O.3       1 <0>         0.0000
     10 O3          0.4947    0.1068   -1.8163 O.3       1 <0>         0.0000
     11 Cl1         4.3688   -2.6855    2.8359 Cl        1 <0>         0.0000
     12 Br1         4.7831   -2.5767   -0.4738 Br        1 <0>         0.0000
     13 H1          2.4209   -1.0635   -1.3499 H         1 <0>         0.0000
     14 H2          2.0161   -1.3490    3.5675 H         1 <0>         0.0000
     15 H3          0.1245   -0.1894    3.3341 H         1 <0>         0.0000
     16 H4         -0.2214    0.5981   -2.2618 H         1 <0>         0.0000
@<TRIPOS>BOND
     1    1    3 ar
     2    1    6 ar
     3    1   13 1
     4    2    4 ar
     5    2    5 ar
     6    2   14 1
     7    3    4 ar
     8    3    7 1
     9    4    9 1
    10    5    6 ar
    11    5   11 1
    12    6   12 1
    13    7    8 2
    14    7   10 1
    15    9   15 1
    16   10   16 1
