@<TRIPOS>MOLECULE
*****
   22    23     0     0     0
SMALL
NO_CHARGES

@<TRIPOS>ATOM
      1 C1          2.6298    3.3269   -1.7850 C.2       1 <0>         0.0000
      2 C2          1.3564    3.0037   -1.2195 C.2       1 <0>         0.0000
      3 C3          2.9649    2.3054   -2.6571 C.2       1 <0>         0.0000
      4 C4          0.9552    1.7929   -1.7595 C.2       1 <0>         0.0000
      5 C5         -1.1229   -0.6953    0.3683 C.3       1 <0>         0.0000
      6 C6         -0.1172    0.2335    1.0223 C.3       1 <0>         0.0000
      7 C7          0.0320   -0.1256   -0.4316 C.3       1 <0>         0.0000
      8 C8         -0.2416    0.9206   -1.5021 C.3       1 <0>         0.0000
      9 N1          1.9450    1.3792   -2.6234 N.pl3     1 <0>         0.0000
     10 N2         -0.5990    0.2218   -2.7557 N.3       1 <0>         0.0000
     11 H1          3.2276    4.2066   -1.5825 H         1 <0>         0.0000
     12 H2          0.8010    3.5848   -0.4936 H         1 <0>         0.0000
     13 H3          3.8268    2.1717   -3.2965 H         1 <0>         0.0000
     14 H4         -1.1031   -1.7488    0.6321 H         1 <0>         0.0000
     15 H5         -2.1173   -0.2991    0.1750 H         1 <0>         0.0000
     16 H6         -0.4409    1.2428    1.2619 H         1 <0>         0.0000
     17 H7          0.5913   -0.1875    1.7291 H         1 <0>         0.0000
     18 H8          0.8361   -0.8126   -0.6853 H         1 <0>         0.0000
     19 H9         -1.0499    1.5705   -1.1292 H         1 <0>         0.0000
     20 H10         1.8473    0.5531   -3.1996 H         1 <0>         0.0000
     21 H11        -0.9596    0.8934   -3.4325 H         1 <0>         0.0000
     22 H12        -1.3439   -0.4471   -2.5655 H         1 <0>         0.0000
@<TRIPOS>BOND
     1    1    2 1
     2    1    3 2
     3    1   11 1
     4    2    4 2
     5    2   12 1
     6    3    9 1
     7    3   13 1
     8    4    8 1
     9    4    9 1
    10    5    6 1
    11    5    7 1
    12    5   14 1
    13    5   15 1
    14    6    7 1
    15    6   16 1
    16    6   17 1
    17    7    8 1
    18    7   18 1
    19    8   10 1
    20    8   19 1
    21    9   20 1
    22   10   21 1
    23   10   22 1
