@<TRIPOS>MOLECULE
*****
   35    36     0     0     0
SMALL
NO_CHARGES

@<TRIPOS>ATOM
      1 C1         -1.4851   -3.2165    5.5048 C.ar      1 <0>         0.0000
      2 C2         -1.7807   -4.3877    4.8183 C.ar      1 <0>         0.0000
      3 C3         -1.3381   -1.9901    4.8385 C.ar      1 <0>         0.0000
      4 C4         -1.7482   -3.1561    2.6957 C.ar      1 <0>         0.0000
      5 C5         -1.9184   -4.3546    3.4243 C.ar      1 <0>         0.0000
      6 C6         -1.4564   -2.0023    3.4411 C.ar      1 <0>         0.0000
      7 C7         -1.0841   -0.7200    5.6720 C.2       1 <0>         0.0000
      8 C8         -0.8100   -4.4509   -1.4119 C.3       1 <0>         0.0000
      9 C9          0.5790   -5.0841   -1.4641 C.3       1 <0>         0.0000
     10 C10         0.9605   -2.8190   -1.1944 C.3       1 <0>         0.0000
     11 C11        -0.5010   -3.0825   -0.7709 C.3       1 <0>         0.0000
     12 C12        -4.2006   -5.6641    2.4025 C.3       1 <0>         0.0000
     13 C13        -1.8476   -3.0854    1.1907 C.3       1 <0>         0.0000
     14 O1          0.1034   -0.5710    6.0429 O.co2     1 <0>         0.0000
     15 O2         -2.1231   -0.0504    5.8883 O.co2     1 <0>         0.0000
     16 O3         -1.8099   -6.0994    1.3401 O.2       1 <0>         0.0000
     17 O4         -2.2970   -6.9756    3.6763 O.2       1 <0>         0.0000
     18 O5          1.4514   -4.0059   -1.8372 O.3       1 <0>         0.0000
     19 O6         -0.5280   -3.1298    0.6517 O.3       1 <0>         0.0000
     20 S1         -2.4219   -5.9041    2.6699 S.o2      1 <0>         0.0000
     21 Cl1        -1.2181   -0.4743    2.5873 Cl        1 <0>         0.0000
     22 H1         -1.3643   -3.2352    6.5847 H         1 <0>         0.0000
     23 H2         -1.8998   -5.3305    5.3415 H         1 <0>         0.0000
     24 H3         -1.2008   -4.3117   -2.4269 H         1 <0>         0.0000
     25 H4         -1.5173   -5.0367   -0.8231 H         1 <0>         0.0000
     26 H5          0.8530   -5.4835   -0.4785 H         1 <0>         0.0000
     27 H6          0.6882   -5.8707   -2.2157 H         1 <0>         0.0000
     28 H7          1.0508   -1.9933   -1.9074 H         1 <0>         0.0000
     29 H8          1.5475   -2.5892   -0.2977 H         1 <0>         0.0000
     30 H9         -1.1793   -2.2926   -1.1240 H         1 <0>         0.0000
     31 H10        -4.5747   -6.5903    1.9604 H         1 <0>         0.0000
     32 H11        -4.6695   -5.4754    3.3690 H         1 <0>         0.0000
     33 H12        -4.3554   -4.8229    1.7255 H         1 <0>         0.0000
     34 H13        -2.4401   -3.9128    0.7935 H         1 <0>         0.0000
     35 H14        -2.3315   -2.1451    0.8962 H         1 <0>         0.0000
@<TRIPOS>BOND
     1    1    2 ar
     2    1    3 ar
     3    1   22 1
     4    2    5 ar
     5    2   23 1
     6    3    6 ar
     7    3    7 1
     8    4    5 ar
     9    4    6 ar
    10    4   13 1
    11    5   20 1
    12    6   21 1
    13    7   14 1
    14    7   15 2
    15    8    9 1
    16    8   11 1
    17    8   24 1
    18    8   25 1
    19    9   18 1
    20    9   26 1
    21    9   27 1
    22   10   11 1
    23   10   18 1
    24   10   28 1
    25   10   29 1
    26   11   19 1
    27   11   30 1
    28   12   20 1
    29   12   31 1
    30   12   32 1
    31   12   33 1
    32   13   19 1
    33   13   34 1
    34   13   35 1
    35   16   20 2
    36   17   20 2
