@<TRIPOS>MOLECULE
*****
   28    28     0     0     0
SMALL
NO_CHARGES

@<TRIPOS>ATOM
      1 C1          5.3935   -0.7138    1.5023 C.ar      1 <0>         0.0000
      2 C2          5.7492   -0.6290    3.8945 C.ar      1 <0>         0.0000
      3 C3          4.1785   -0.0238    1.6383 C.ar      1 <0>         0.0000
      4 C4          6.1646   -1.0312    2.6223 C.ar      1 <0>         0.0000
      5 C5          3.7411    0.3744    2.9171 C.ar      1 <0>         0.0000
      6 C6          4.5551    0.0747    4.0242 C.ar      1 <0>         0.0000
      7 C7          3.3397    0.2589    0.4143 C.2       1 <0>         0.0000
      8 C8          4.6532    2.1748   -0.5377 C.3       1 <0>         0.0000
      9 C9          3.1391    0.7937   -2.0482 C.3       1 <0>         0.0000
     10 C10         2.5976    2.4404    2.9504 C.3       1 <0>         0.0000
     11 C11         4.0652    0.7786   -0.8309 C.3       1 <0>         0.0000
     12 O1          2.1294    0.1064    0.4326 O.2       1 <0>         0.0000
     13 O2          7.3433   -1.7308    2.5421 O.3       1 <0>         0.0000
     14 O3          2.5493    1.0175    3.1085 O.3       1 <0>         0.0000
     15 Cl1         4.0510    0.5917    5.6179 Cl        1 <0>         0.0000
     16 H1          5.7266   -1.0346    0.5183 H         1 <0>         0.0000
     17 H2          6.3554   -0.8680    4.7616 H         1 <0>         0.0000
     18 H3          3.8517    2.8968   -0.3472 H         1 <0>         0.0000
     19 H4          5.2240    2.5305   -1.4014 H         1 <0>         0.0000
     20 H5          5.3197    2.1645    0.3296 H         1 <0>         0.0000
     21 H6          2.2889    1.4608   -1.8811 H         1 <0>         0.0000
     22 H7          2.7371   -0.2019   -2.2545 H         1 <0>         0.0000
     23 H8          3.6843    1.1401   -2.9324 H         1 <0>         0.0000
     24 H9          1.5891    2.8033    3.1543 H         1 <0>         0.0000
     25 H10         2.8810    2.7114    1.9265 H         1 <0>         0.0000
     26 H11         3.3033    2.8902    3.6590 H         1 <0>         0.0000
     27 H12         4.9092    0.1082   -1.0361 H         1 <0>         0.0000
     28 H13         7.5114   -1.9721    1.6175 H         1 <0>         0.0000
@<TRIPOS>BOND
     1    1    3 ar
     2    1    4 ar
     3    1   16 1
     4    2    4 ar
     5    2    6 ar
     6    2   17 1
     7    3    5 ar
     8    3    7 1
     9    4   13 1
    10    5    6 ar
    11    5   14 1
    12    6   15 1
    13    7   11 1
    14    7   12 2
    15    8   11 1
    16    8   18 1
    17    8   19 1
    18    8   20 1
    19    9   11 1
    20    9   21 1
    21    9   22 1
    22    9   23 1
    23   10   14 1
    24   10   24 1
    25   10   25 1
    26   10   26 1
    27   11   27 1
    28   13   28 1
