@<TRIPOS>MOLECULE
*****
   32    33     0     0     0
SMALL
NO_CHARGES

@<TRIPOS>ATOM
      1 C1          0.4615   -3.0081   -1.9586 C.ar      1 <0>         0.0000
      2 C2          0.2179   -1.6477   -1.7274 C.ar      1 <0>         0.0000
      3 C3          0.5698   -2.0090    0.6396 C.ar      1 <0>         0.0000
      4 C4          0.7530   -3.8871   -0.9051 C.ar      1 <0>         0.0000
      5 C5          0.8157   -3.3605    0.4093 C.ar      1 <0>         0.0000
      6 C6          0.2668   -1.1467   -0.4235 C.ar      1 <0>         0.0000
      7 C7          1.6662   -6.0243   -0.1750 C.2       1 <0>         0.0000
      8 C8          1.0097   -5.3322   -1.1328 C.2       1 <0>         0.0000
      9 C9          1.6506   -5.6734   -3.5910 C.2       1 <0>         0.0000
     10 C10         1.1244   -4.3049    1.5494 C.3       1 <0>         0.0000
     11 C11         2.1299   -5.3731    1.1067 C.3       1 <0>         0.0000
     12 C12         0.3075   -7.4572   -2.3443 C.3       1 <0>         0.0000
     13 C13        -0.2350    1.0781   -1.1385 C.3       1 <0>         0.0000
     14 C14         0.5737   -5.9512   -2.4412 C.3       1 <0>         0.0000
     15 O1          2.6535   -6.4280   -3.5752 O.co2     1 <0>         0.0000
     16 O2          1.3593   -4.7355   -4.3866 O.co2     1 <0>         0.0000
     17 O3          0.0428    0.1770   -0.0804 O.3       1 <0>         0.0000
     18 H1          0.4780   -3.3868   -2.9801 H         1 <0>         0.0000
     19 H2          0.0112   -1.0018   -2.5745 H         1 <0>         0.0000
     20 H3          0.6143   -1.5994    1.6467 H         1 <0>         0.0000
     21 H4          1.9241   -7.0652   -0.3419 H         1 <0>         0.0000
     22 H5          1.4892   -3.7480    2.4209 H         1 <0>         0.0000
     23 H6          0.1941   -4.8100    1.8516 H         1 <0>         0.0000
     24 H7          2.2512   -6.1232    1.8983 H         1 <0>         0.0000
     25 H8          3.1193   -4.9088    0.9609 H         1 <0>         0.0000
     26 H9          1.2465   -8.0006   -2.2117 H         1 <0>         0.0000
     27 H10        -0.1388   -7.8138   -3.2802 H         1 <0>         0.0000
     28 H11        -0.3750   -7.6995   -1.5181 H         1 <0>         0.0000
     29 H12        -0.3731    2.0581   -0.6749 H         1 <0>         0.0000
     30 H13        -1.1513    0.8015   -1.6779 H         1 <0>         0.0000
     31 H14         0.5953    1.1309   -1.8555 H         1 <0>         0.0000
     32 H15        -0.3482   -5.4531   -2.7587 H         1 <0>         0.0000
@<TRIPOS>BOND
     1    1    2 ar
     2    1    4 ar
     3    1   18 1
     4    2    6 ar
     5    2   19 1
     6    3    5 ar
     7    3    6 ar
     8    3   20 1
     9    4    5 ar
    10    4    8 1
    11    5   10 1
    12    6   17 1
    13    7    8 2
    14    7   11 1
    15    7   21 1
    16    8   14 1
    17    9   14 1
    18    9   15 1
    19    9   16 2
    20   10   11 1
    21   10   22 1
    22   10   23 1
    23   11   24 1
    24   11   25 1
    25   12   14 1
    26   12   26 1
    27   12   27 1
    28   12   28 1
    29   13   17 1
    30   13   29 1
    31   13   30 1
    32   13   31 1
    33   14   32 1
