@<TRIPOS>MOLECULE
*****
   34    36     0     0     0
SMALL
NO_CHARGES

@<TRIPOS>ATOM
      1 C1         -2.9811   -2.3033   -1.2346 C.ar      1 <0>         0.0000
      2 C2         -2.4613   -2.7475    1.0634 C.ar      1 <0>         0.0000
      3 C3         -1.9828   -1.3211   -1.2230 C.ar      1 <0>         0.0000
      4 C4         -3.2298   -3.0290   -0.0740 C.ar      1 <0>         0.0000
      5 C5         -1.2081   -1.1457   -0.0562 C.ar      1 <0>         0.0000
      6 C6         -4.0961    1.1800   -0.5298 C.3       1 <0>         0.0000
      7 C7         -4.7289    1.9733   -1.6528 C.3       1 <0>         0.0000
      8 C8         -0.2235    1.2683    0.1047 C.3       1 <0>         0.0000
      9 C9          0.3001    0.4639    1.2729 C.3       1 <0>         0.0000
     10 C10        -3.3155    1.4692   -1.7804 C.3       1 <0>         0.0000
     11 C11        -0.0080   -0.2384   -0.0216 C.3       1 <0>         0.0000
     12 C12         1.1772   -0.7480   -0.8361 C.3       1 <0>         0.0000
     13 C13        -1.7859   -0.4728   -2.4496 C.3       1 <0>         0.0000
     14 N1         -1.4752   -1.8495    1.0555 N.ar      1 <0>         0.0000
     15 N2         -3.0415    0.3622   -2.7410 N.4       1 <0>         0.0000
     16 Br1        -4.5764   -4.3702   -0.0269 Br        1 <0>         0.0000
     17 H1         -3.5564   -2.5184   -2.1343 H         1 <0>         0.0000
     18 H2         -2.6424   -3.2742    1.9979 H         1 <0>         0.0000
     19 H3         -3.7839    1.6980    0.3707 H         1 <0>         0.0000
     20 H4         -4.4470    0.1668   -0.3621 H         1 <0>         0.0000
     21 H5         -5.5089    1.4891   -2.2351 H         1 <0>         0.0000
     22 H6         -4.8572    3.0446   -1.5408 H         1 <0>         0.0000
     23 H7         -1.2402    1.6392    0.1898 H         1 <0>         0.0000
     24 H8          0.4604    1.9271   -0.4247 H         1 <0>         0.0000
     25 H9          1.3456    0.5747    1.5419 H         1 <0>         0.0000
     26 H10        -0.3670    0.2881    2.1093 H         1 <0>         0.0000
     27 H11        -2.4851    2.1654   -1.7574 H         1 <0>         0.0000
     28 H12         2.0142   -0.0470   -0.7735 H         1 <0>         0.0000
     29 H13         0.9397   -0.8860   -1.8976 H         1 <0>         0.0000
     30 H14         1.5163   -1.7129   -0.4464 H         1 <0>         0.0000
     31 H15        -0.9727    0.2404   -2.3360 H         1 <0>         0.0000
     32 H16        -1.6189   -1.0718   -3.3495 H         1 <0>         0.0000
     33 H17        -3.8523   -0.2671   -2.7646 H         1 <0>         0.0000
     34 H18        -2.9646    0.7603   -3.6855 H         1 <0>         0.0000
@<TRIPOS>BOND
     1    1    3 ar
     2    1    4 ar
     3    1   17 1
     4    2    4 ar
     5    2   14 ar
     6    2   18 1
     7    3    5 ar
     8    3   13 1
     9    4   16 1
    10    5   11 1
    11    5   14 ar
    12    6    7 1
    13    6   10 1
    14    6   19 1
    15    6   20 1
    16    7   10 1
    17    7   21 1
    18    7   22 1
    19    8    9 1
    20    8   11 1
    21    8   23 1
    22    8   24 1
    23    9   11 1
    24    9   25 1
    25    9   26 1
    26   10   15 1
    27   10   27 1
    28   11   12 1
    29   12   28 1
    30   12   29 1
    31   12   30 1
    32   13   15 1
    33   13   31 1
    34   13   32 1
    35   15   33 1
    36   15   34 1
