@<TRIPOS>MOLECULE
*****
   29    30     0     0     0
SMALL
NO_CHARGES

@<TRIPOS>ATOM
      1 C1          2.8723   -2.6930    8.4915 C.ar      1 <0>         0.0000
      2 C2          1.9075   -1.2422   -0.4751 C.ar      1 <0>         0.0000
      3 C3          0.7102   -1.6147    0.1382 C.ar      1 <0>         0.0000
      4 C4          3.5555   -3.5061    7.5757 C.ar      1 <0>         0.0000
      5 C5          2.0047   -1.7109    8.0127 C.ar      1 <0>         0.0000
      6 C6          3.0025   -0.8618    0.3087 C.ar      1 <0>         0.0000
      7 C7          0.6250   -1.6025    1.5338 C.ar      1 <0>         0.0000
      8 C8          3.3744   -3.3360    6.2053 C.ar      1 <0>         0.0000
      9 C9          1.8110   -1.5278    6.6365 C.ar      1 <0>         0.0000
     10 C10         2.9293   -0.8421    1.7070 C.ar      1 <0>         0.0000
     11 C11         1.7157   -1.2200    2.3218 C.ar      1 <0>         0.0000
     12 C12         2.5011   -2.3439    5.7289 C.ar      1 <0>         0.0000
     13 C13         4.1284   -0.4284    2.5284 C.3       1 <0>         0.0000
     14 C14         1.5787   -1.2069    3.8215 C.3       1 <0>         0.0000
     15 O1          2.3909   -2.2584    4.3662 O.3       1 <0>         0.0000
     16 H1          3.0155   -2.8271    9.5600 H         1 <0>         0.0000
     17 H2          1.9925   -1.2466   -1.5590 H         1 <0>         0.0000
     18 H3         -0.1463   -1.9143   -0.4598 H         1 <0>         0.0000
     19 H4          4.2341   -4.2769    7.9324 H         1 <0>         0.0000
     20 H5          1.4657   -1.0746    8.7103 H         1 <0>         0.0000
     21 H6          3.9323   -0.5729   -0.1763 H         1 <0>         0.0000
     22 H7         -0.3025   -1.8984    2.0193 H         1 <0>         0.0000
     23 H8          3.8959   -3.9582    5.4835 H         1 <0>         0.0000
     24 H9          1.1260   -0.7609    6.2938 H         1 <0>         0.0000
     25 H10         3.8959    0.4238    3.1782 H         1 <0>         0.0000
     26 H11         4.4610   -1.2425    3.1787 H         1 <0>         0.0000
     27 H12         4.9619   -0.1361    1.8844 H         1 <0>         0.0000
     28 H13         1.9092   -0.2451    4.2355 H         1 <0>         0.0000
     29 H14         0.5324   -1.3609    4.1119 H         1 <0>         0.0000
@<TRIPOS>BOND
     1    1    5 ar
     2    1    4 ar
     3    1   16 1
     4    2    3 ar
     5    2    6 ar
     6    2   17 1
     7    3    7 ar
     8    3   18 1
     9    4    8 ar
    10    4   19 1
    11    5    9 ar
    12    5   20 1
    13    6   10 ar
    14    6   21 1
    15    7   11 ar
    16    7   22 1
    17    8   12 ar
    18    8   23 1
    19    9   12 ar
    20    9   24 1
    21   10   11 ar
    22   10   13 1
    23   11   14 1
    24   12   15 1
    25   13   25 1
    26   13   26 1
    27   13   27 1
    28   14   15 1
    29   14   28 1
    30   14   29 1
