@<TRIPOS>MOLECULE
*****
   25    26     0     0     0
SMALL
NO_CHARGES

@<TRIPOS>ATOM
      1 C1          5.2311   -1.4161   -2.0640 C.ar      1 <0>         0.0000
      2 C2          4.1977   -1.4241   -3.0045 C.ar      1 <0>         0.0000
      3 C3          5.0333   -0.7389   -0.8614 C.ar      1 <0>         0.0000
      4 C4          0.2724   -0.5539    0.5437 C.ar      1 <0>         0.0000
      5 C5          1.4779   -0.6205    2.6178 C.ar      1 <0>         0.0000
      6 C6          3.0083   -0.7516   -2.7000 C.ar      1 <0>         0.0000
      7 C7         -0.4850   -1.6273    1.0083 C.ar      1 <0>         0.0000
      8 C8          1.2759   -0.0264    1.3676 C.ar      1 <0>         0.0000
      9 C9          3.8045   -0.1006   -0.6489 C.ar      1 <0>         0.0000
     10 C10         0.6588   -1.6987    2.9655 C.ar      1 <0>         0.0000
     11 C11         3.5647    0.6232    0.6483 C.2       1 <0>         0.0000
     12 C12         2.1516    1.1290    0.9239 C.3       1 <0>         0.0000
     13 N1          2.8057   -0.1025   -1.5490 N.ar      1 <0>         0.0000
     14 N2         -0.2984   -2.2022    2.2092 N.ar      1 <0>         0.0000
     15 O1          4.4635    0.7599    1.4659 O.2       1 <0>         0.0000
     16 Br1         0.9365   -2.5358    4.6824 Br        1 <0>         0.0000
     17 H1          6.1685   -1.9280   -2.2645 H         1 <0>         0.0000
     18 H2          4.3037   -1.9388   -3.9552 H         1 <0>         0.0000
     19 H3          5.7930   -0.6936   -0.0881 H         1 <0>         0.0000
     20 H4          0.0970   -0.1420   -0.4445 H         1 <0>         0.0000
     21 H5          2.2480   -0.2633    3.2933 H         1 <0>         0.0000
     22 H6          2.1858   -0.7375   -3.4132 H         1 <0>         0.0000
     23 H7         -1.2771   -2.0545    0.3964 H         1 <0>         0.0000
     24 H8          1.7351    1.5853    0.0250 H         1 <0>         0.0000
     25 H9          2.2296    1.8739    1.7188 H         1 <0>         0.0000
@<TRIPOS>BOND
     1    1    2 ar
     2    1    3 ar
     3    1   17 1
     4    2    6 ar
     5    2   18 1
     6    3    9 ar
     7    3   19 1
     8    4    7 ar
     9    4    8 ar
    10    4   20 1
    11    5    8 ar
    12    5   10 ar
    13    5   21 1
    14    6   13 ar
    15    6   22 1
    16    7   14 ar
    17    7   23 1
    18    8   12 1
    19    9   11 1
    20    9   13 ar
    21   10   14 ar
    22   10   16 1
    23   11   12 1
    24   11   15 2
    25   12   24 1
    26   12   25 1
