@<TRIPOS>MOLECULE
*****
   47    50     0     0     0
SMALL
NO_CHARGES

@<TRIPOS>ATOM
      1 C1          0.8455   -3.0548   -4.3418 C.1       1 <0>         0.0000
      2 C2          2.7294   -4.3519   -7.2683 C.ar      1 <0>         0.0000
      3 C3          4.0325   -3.9231   -6.9830 C.ar      1 <0>         0.0000
      4 C4          1.7068   -4.0740   -6.3663 C.ar      1 <0>         0.0000
      5 C5          4.3053   -3.2400   -5.8012 C.ar      1 <0>         0.0000
      6 C6          4.6383   -1.3284   -3.3642 C.2       1 <0>         0.0000
      7 C7          4.4556   -0.9380   -2.0013 C.2       1 <0>         0.0000
      8 C8          1.9714   -3.3694   -5.1768 C.ar      1 <0>         0.0000
      9 C9          3.2902   -2.9473   -4.8701 C.ar      1 <0>         0.0000
     10 C10         3.6323   -2.2202   -3.6572 C.2       1 <0>         0.0000
     11 C11         3.3576   -1.6152   -1.5388 C.2       1 <0>         0.0000
     12 C12         0.2363    1.7637    0.5338 C.3       1 <0>         0.0000
     13 C13         0.3730    1.2708   -0.9316 C.3       1 <0>         0.0000
     14 C14        -1.1511   -0.1955    1.4139 C.3       1 <0>         0.0000
     15 C15         1.4130   -0.3031    1.3851 C.3       1 <0>         0.0000
     16 C16        -0.5064   -1.1231   -0.7624 C.3       1 <0>         0.0000
     17 C17         0.1668    0.5919    1.5293 C.3       1 <0>         0.0000
     18 C18         0.7361   -0.2211   -0.9726 C.3       1 <0>         0.0000
     19 C19        -2.7889   -1.2557    0.0125 C.3       1 <0>         0.0000
     20 C20         2.6363   -1.6301   -0.2284 C.3       1 <0>         0.0000
     21 N1         -0.1160   -2.8071   -3.7320 N.1       1 <0>         0.0000
     22 N2         -1.5517   -0.4888    0.0419 N.3       1 <0>         0.0000
     23 N3          1.8379   -0.4269   -0.0143 N.3       1 <0>         0.0000
     24 O1          2.8508   -2.3991   -2.5431 O.3       1 <0>         0.0000
     25 H1          2.5155   -4.8951   -8.1840 H         1 <0>         0.0000
     26 H2          4.8403   -4.1375   -7.6775 H         1 <0>         0.0000
     27 H3          0.6876   -4.3851   -6.5742 H         1 <0>         0.0000
     28 H4          5.3251   -2.9454   -5.5733 H         1 <0>         0.0000
     29 H5          5.3953   -0.9717   -4.0502 H         1 <0>         0.0000
     30 H6          5.0466   -0.2320   -1.4334 H         1 <0>         0.0000
     31 H7          1.0997    2.3847    0.7976 H         1 <0>         0.0000
     32 H8         -0.6540    2.3911    0.6453 H         1 <0>         0.0000
     33 H9         -0.5588    1.4297   -1.4792 H         1 <0>         0.0000
     34 H10         1.1649    1.8302   -1.4389 H         1 <0>         0.0000
     35 H11        -1.0630   -1.1204    2.0208 H         1 <0>         0.0000
     36 H12        -1.9554    0.3988    1.8661 H         1 <0>         0.0000
     37 H13         2.2459    0.1260    1.9592 H         1 <0>         0.0000
     38 H14         1.1946   -1.2883    1.8343 H         1 <0>         0.0000
     39 H15        -0.9354   -1.3459   -1.7421 H         1 <0>         0.0000
     40 H16        -0.1948   -2.0994   -0.3415 H         1 <0>         0.0000
     41 H17         0.1852    0.9918    2.5503 H         1 <0>         0.0000
     42 H18         1.1361   -0.4583   -1.9613 H         1 <0>         0.0000
     43 H19        -3.1157   -1.3940   -1.0228 H         1 <0>         0.0000
     44 H20        -3.5745   -0.7125    0.5496 H         1 <0>         0.0000
     45 H21        -2.6902   -2.2570    0.4759 H         1 <0>         0.0000
     46 H22         2.0478   -2.5627   -0.1662 H         1 <0>         0.0000
     47 H23         3.3818   -1.6733    0.5736 H         1 <0>         0.0000
@<TRIPOS>BOND
     1    1    8 1
     2    1   21 3
     3    2    3 ar
     4    2    4 ar
     5    2   25 1
     6    3    5 ar
     7    3   26 1
     8    4    8 ar
     9    4   27 1
    10    5    9 ar
    11    5   28 1
    12    6    7 1
    13    6   10 2
    14    6   29 1
    15    7   11 2
    16    7   30 1
    17    8    9 ar
    18    9   10 1
    19   10   24 1
    20   11   20 1
    21   11   24 1
    22   12   13 1
    23   12   17 1
    24   12   31 1
    25   12   32 1
    26   13   18 1
    27   13   33 1
    28   13   34 1
    29   14   17 1
    30   14   22 1
    31   14   35 1
    32   14   36 1
    33   15   17 1
    34   15   23 1
    35   15   37 1
    36   15   38 1
    37   16   18 1
    38   16   22 1
    39   16   39 1
    40   16   40 1
    41   17   41 1
    42   18   23 1
    43   18   42 1
    44   19   22 1
    45   19   43 1
    46   19   44 1
    47   19   45 1
    48   20   23 1
    49   20   46 1
    50   20   47 1
