@<TRIPOS>MOLECULE
*****
   31    32     0     0     0
SMALL
NO_CHARGES

@<TRIPOS>ATOM
      1 C1          0.0636   -3.2330    0.5059 C.ar      1 <0>         0.0000
      2 C2          3.4984   -2.5592   -0.8216 C.ar      1 <0>         0.0000
      3 C3         -0.4412   -1.9562    0.6123 C.ar      1 <0>         0.0000
      4 C4          4.0054   -3.8309   -0.9272 C.ar      1 <0>         0.0000
      5 C5          1.6260   -1.0295   -0.2232 C.ar      1 <0>         0.0000
      6 C6          1.9239   -4.7748   -0.0869 C.ar      1 <0>         0.0000
      7 C7          2.1768   -2.3331   -0.3424 C.ar      1 <0>         0.0000
      8 C8          1.3845   -3.4633    0.0292 C.ar      1 <0>         0.0000
      9 C9          0.3419   -0.8232    0.2473 C.ar      1 <0>         0.0000
     10 C10         3.2124   -4.9548   -0.5569 C.ar      1 <0>         0.0000
     11 C11        -1.4537    0.7861   -0.5452 C.2       1 <0>         0.0000
     12 C12        -0.5762    0.9551    1.8236 C.3       1 <0>         0.0000
     13 C13         3.0986   -7.3328   -0.3586 C.3       1 <0>         0.0000
     14 C14        -0.2380    0.5739    0.3759 C.3       1 <0>         0.0000
     15 O1         -2.4116    1.4674   -0.2595 O.2       1 <0>         0.0000
     16 O2         -1.3742    0.1912   -1.7671 O.3       1 <0>         0.0000
     17 O3          3.8322   -6.1622   -0.7095 O.3       1 <0>         0.0000
     18 H1         -0.5522   -4.0849    0.7850 H         1 <0>         0.0000
     19 H2          4.1115   -1.7073   -1.1062 H         1 <0>         0.0000
     20 H3         -1.4569   -1.8078    0.9710 H         1 <0>         0.0000
     21 H4          5.0121   -4.0141   -1.2911 H         1 <0>         0.0000
     22 H5          2.2415   -0.1771   -0.5068 H         1 <0>         0.0000
     23 H6          1.3030   -5.6164    0.2004 H         1 <0>         0.0000
     24 H7         -1.3408    0.2921    2.2372 H         1 <0>         0.0000
     25 H8          0.3195    0.8787    2.4464 H         1 <0>         0.0000
     26 H9         -0.9621    1.9755    1.8692 H         1 <0>         0.0000
     27 H10         3.7657   -8.1732   -0.5530 H         1 <0>         0.0000
     28 H11         2.1953   -7.4338   -0.9724 H         1 <0>         0.0000
     29 H12         2.8216   -7.3241    0.7027 H         1 <0>         0.0000
     30 H13         0.5148    1.2811    0.0019 H         1 <0>         0.0000
     31 H14        -0.5870   -0.3848   -1.7906 H         1 <0>         0.0000
@<TRIPOS>BOND
     1    1    3 ar
     2    1    8 ar
     3    1   18 1
     4    2    4 ar
     5    2    7 ar
     6    2   19 1
     7    3    9 ar
     8    3   20 1
     9    4   10 ar
    10    4   21 1
    11    5    7 ar
    12    5    9 ar
    13    5   22 1
    14    6    8 ar
    15    6   10 ar
    16    6   23 1
    17    7    8 ar
    18    9   14 1
    19   10   17 1
    20   11   14 1
    21   11   15 2
    22   11   16 1
    23   12   14 1
    24   12   24 1
    25   12   25 1
    26   12   26 1
    27   13   17 1
    28   13   27 1
    29   13   28 1
    30   13   29 1
    31   14   30 1
    32   16   31 1
