@<TRIPOS>MOLECULE
*****
   27    28     0     0     0
SMALL
NO_CHARGES

@<TRIPOS>ATOM
      1 C1         -2.3776   -0.0284    4.5066 C.ar      1 <0>         0.0000
      2 C2         -1.9301    0.1940    3.2045 C.ar      1 <0>         0.0000
      3 C3         -3.5386   -0.7713    4.7551 C.ar      1 <0>         0.0000
      4 C4         -3.8448   -1.0387    2.3465 C.ar      1 <0>         0.0000
      5 C5         -2.6585   -0.3272    2.1194 C.ar      1 <0>         0.0000
      6 C6         -4.2444   -1.2591    3.6593 C.ar      1 <0>         0.0000
      7 C7         -0.4370   -2.1860    1.5295 C.3       1 <0>         0.0000
      8 C8          0.9747   -0.9700   -0.0280 C.3       1 <0>         0.0000
      9 C9          0.8289   -2.5918    2.2824 C.3       1 <0>         0.0000
     10 C10         2.1888   -1.3985    0.7887 C.3       1 <0>         0.0000
     11 N1         -2.3249    0.0138    0.7775 N.2       1 <0>         0.0000
     12 N2         -1.2036   -0.1732    0.2448 N.2       1 <0>         0.0000
     13 N3         -0.1965   -0.8931    0.8577 N.pl3     1 <0>         0.0000
     14 O1          1.9670   -2.6533    1.4293 O.3       1 <0>         0.0000
     15 F1         -5.3790   -1.9724    3.8781 F         1 <0>         0.0000
     16 H1         -1.8154    0.3778    5.3432 H         1 <0>         0.0000
     17 H2         -1.0234    0.7607    3.0190 H         1 <0>         0.0000
     18 H3         -3.8990   -0.9595    5.7612 H         1 <0>         0.0000
     19 H4         -4.4358   -1.4137    1.5170 H         1 <0>         0.0000
     20 H5         -0.6859   -2.9439    0.7718 H         1 <0>         0.0000
     21 H6         -1.2599   -2.1205    2.2351 H         1 <0>         0.0000
     22 H7          1.1361    0.0160   -0.4677 H         1 <0>         0.0000
     23 H8          0.7984   -1.6916   -0.8393 H         1 <0>         0.0000
     24 H9          1.0072   -1.8787    3.1018 H         1 <0>         0.0000
     25 H10         0.7044   -3.5911    2.7066 H         1 <0>         0.0000
     26 H11         3.0570   -1.5305    0.1386 H         1 <0>         0.0000
     27 H12         2.4219   -0.6290    1.5408 H         1 <0>         0.0000
@<TRIPOS>BOND
     1    1    2 ar
     2    1    3 ar
     3    1   16 1
     4    2    5 ar
     5    2   17 1
     6    3    6 ar
     7    3   18 1
     8    4    5 ar
     9    4    6 ar
    10    4   19 1
    11    5   11 1
    12    6   15 1
    13    7    9 1
    14    7   13 1
    15    7   20 1
    16    7   21 1
    17    8   10 1
    18    8   13 1
    19    8   22 1
    20    8   23 1
    21    9   14 1
    22    9   24 1
    23    9   25 1
    24   10   14 1
    25   10   26 1
    26   10   27 1
    27   11   12 2
    28   12   13 1
