@<TRIPOS>MOLECULE
*****
   39    40     0     0     0
SMALL
NO_CHARGES

@<TRIPOS>ATOM
      1 C1          3.1828   -1.2021    2.0478 C.ar      1 <0>         0.0000
      2 C2          2.0246   -1.0837   -0.0698 C.ar      1 <0>         0.0000
      3 C3          0.7035    3.9755    3.9471 C.ar      1 <0>         0.0000
      4 C4         -0.2650    4.2100    1.7457 C.ar      1 <0>         0.0000
      5 C5          2.0568   -0.6984    2.6979 C.ar      1 <0>         0.0000
      6 C6          0.8891   -0.5766    0.5661 C.ar      1 <0>         0.0000
      7 C7          0.4304    2.6059    3.9344 C.ar      1 <0>         0.0000
      8 C8         -0.5463    2.8447    1.7181 C.ar      1 <0>         0.0000
      9 C9          3.1826   -1.3987    0.6567 C.ar      1 <0>         0.0000
     10 C10         0.3652    4.7925    2.8581 C.ar      1 <0>         0.0000
     11 C11         0.9214   -0.3838    1.9471 C.ar      1 <0>         0.0000
     12 C12        -0.1883    2.0539    2.8129 C.ar      1 <0>         0.0000
     13 C13         4.4140   -1.9178   -0.0498 C.3       1 <0>         0.0000
     14 C14         0.6951    6.2676    2.8739 C.3       1 <0>         0.0000
     15 C15         5.5046   -0.8584   -0.2228 C.3       1 <0>         0.0000
     16 C16         1.9168    6.6241    2.0241 C.3       1 <0>         0.0000
     17 O1         -1.6820    0.0725    1.8896 O.2       1 <0>         0.0000
     18 O2         -0.5118   -0.1946    4.1651 O.2       1 <0>         0.0000
     19 O3          6.0388   -0.5482    1.0687 O.3       1 <0>         0.0000
     20 O4          1.5772    6.4330    0.6465 O.3       1 <0>         0.0000
     21 S1         -0.5256    0.2888    2.7746 S.o2      1 <0>         0.0000
     22 H1          4.0740   -1.4438    2.6180 H         1 <0>         0.0000
     23 H2          2.0035   -1.2476   -1.1450 H         1 <0>         0.0000
     24 H3          1.1756    4.4156    4.8228 H         1 <0>         0.0000
     25 H4         -0.5310    4.8346    0.8988 H         1 <0>         0.0000
     26 H5          2.0456   -0.5665    3.7755 H         1 <0>         0.0000
     27 H6         -0.0168   -0.3551    0.0105 H         1 <0>         0.0000
     28 H7          0.6684    1.9754    4.7855 H         1 <0>         0.0000
     29 H8         -1.0535    2.3953    0.8698 H         1 <0>         0.0000
     30 H9          4.8469   -2.7583    0.5040 H         1 <0>         0.0000
     31 H10         4.1434   -2.2904   -1.0435 H         1 <0>         0.0000
     32 H11        -0.1538    6.8533    2.5040 H         1 <0>         0.0000
     33 H12         0.8903    6.5941    3.9009 H         1 <0>         0.0000
     34 H13         6.2927   -1.2561   -0.8788 H         1 <0>         0.0000
     35 H14         5.0797    0.0379   -0.6969 H         1 <0>         0.0000
     36 H15         2.1916    7.6727    2.2099 H         1 <0>         0.0000
     37 H16         2.7665    5.9879    2.3104 H         1 <0>         0.0000
     38 H17         6.6396    0.2068    0.9802 H         1 <0>         0.0000
     39 H18         2.3801    6.5374    0.1142 H         1 <0>         0.0000
@<TRIPOS>BOND
     1    1    5 ar
     2    1    9 ar
     3    1   22 1
     4    2    6 ar
     5    2    9 ar
     6    2   23 1
     7    3    7 ar
     8    3   10 ar
     9    3   24 1
    10    4    8 ar
    11    4   10 ar
    12    4   25 1
    13    5   11 ar
    14    5   26 1
    15    6   11 ar
    16    6   27 1
    17    7   12 ar
    18    7   28 1
    19    8   12 ar
    20    8   29 1
    21    9   13 1
    22   10   14 1
    23   11   21 1
    24   12   21 1
    25   13   15 1
    26   13   30 1
    27   13   31 1
    28   14   16 1
    29   14   32 1
    30   14   33 1
    31   15   19 1
    32   15   34 1
    33   15   35 1
    34   16   20 1
    35   16   36 1
    36   16   37 1
    37   17   21 2
    38   18   21 2
    39   19   38 1
    40   20   39 1
