@<TRIPOS>MOLECULE
*****
   29    30     0     0     0
SMALL
NO_CHARGES

@<TRIPOS>ATOM
      1 C1          2.0134   -0.5964   -0.2610 C.ar      1 <0>         0.0000
      2 C2          2.1664    0.5043    0.5892 C.ar      1 <0>         0.0000
      3 C3          1.6948   -1.8496    0.2743 C.ar      1 <0>         0.0000
      4 C4          1.9944    0.3480    1.9641 C.ar      1 <0>         0.0000
      5 C5          1.5092   -2.0059    1.6472 C.ar      1 <0>         0.0000
      6 C6         -2.6579   -2.2581    5.6404 C.ar      1 <0>         0.0000
      7 C7         -3.4996   -2.3496    6.7464 C.ar      1 <0>         0.0000
      8 C8         -1.3232   -4.0982    6.5172 C.ar      1 <0>         0.0000
      9 C9          1.6384   -0.9008    2.5096 C.ar      1 <0>         0.0000
     10 C10        -1.5739   -3.1320    5.5464 C.ar      1 <0>         0.0000
     11 C11        -3.2587   -3.3046    7.7417 C.ar      1 <0>         0.0000
     12 C12        -2.1692   -4.1844    7.6261 C.ar      1 <0>         0.0000
     13 C13         1.4647   -0.9899    3.9638 C.2       1 <0>         0.0000
     14 C14         0.6989   -1.8009    4.7145 C.2       1 <0>         0.0000
     15 O1          0.2117   -4.3157    3.9859 O.2       1 <0>         0.0000
     16 O2         -1.2507   -2.4662    3.0040 O.2       1 <0>         0.0000
     17 S1         -0.4739   -3.0184    4.1228 S.o2      1 <0>         0.0000
     18 Cl1        -4.3368   -3.3780    9.1068 Cl        1 <0>         0.0000
     19 Cl2        -1.8466   -5.3968    8.8354 Cl        1 <0>         0.0000
     20 H1          2.1546   -0.4813   -1.3325 H         1 <0>         0.0000
     21 H2          2.4260    1.4780    0.1824 H         1 <0>         0.0000
     22 H3          1.5954   -2.7113   -0.3800 H         1 <0>         0.0000
     23 H4          2.1199    1.2033    2.6245 H         1 <0>         0.0000
     24 H5          1.2942   -2.9918    2.0436 H         1 <0>         0.0000
     25 H6         -2.8454   -1.5350    4.8532 H         1 <0>         0.0000
     26 H7         -4.3535   -1.6875    6.8465 H         1 <0>         0.0000
     27 H8         -0.4926   -4.7874    6.4039 H         1 <0>         0.0000
     28 H9          2.0537   -0.2724    4.5364 H         1 <0>         0.0000
     29 H10         0.7319   -1.7610    5.7993 H         1 <0>         0.0000
@<TRIPOS>BOND
     1    1    3 ar
     2    1    2 ar
     3    1   20 1
     4    2    4 ar
     5    2   21 1
     6    3    5 ar
     7    3   22 1
     8    4    9 ar
     9    4   23 1
    10    5    9 ar
    11    5   24 1
    12    6    7 ar
    13    6   10 ar
    14    6   25 1
    15    7   11 ar
    16    7   26 1
    17    8   10 ar
    18    8   12 ar
    19    8   27 1
    20    9   13 1
    21   10   17 1
    22   11   12 ar
    23   11   18 1
    24   12   19 1
    25   13   14 2
    26   13   28 1
    27   14   17 1
    28   14   29 1
    29   15   17 2
    30   16   17 2
