@<TRIPOS>MOLECULE
*****
   25    26     0     0     0
SMALL
NO_CHARGES

@<TRIPOS>ATOM
      1 C1          6.8730    1.2512    1.9859 C.ar      1 <0>         0.0000
      2 C2          6.4550    2.0672    3.0404 C.ar      1 <0>         0.0000
      3 C3          5.9199    0.8025    1.0726 C.ar      1 <0>         0.0000
      4 C4          1.3668    0.3822    3.0176 C.ar      1 <0>         0.0000
      5 C5          1.4584   -1.3650    1.3746 C.ar      1 <0>         0.0000
      6 C6          5.0987    2.4003    3.1352 C.ar      1 <0>         0.0000
      7 C7          0.9604   -0.5781    3.9419 C.ar      1 <0>         0.0000
      8 C8          1.6162   -0.0127    1.6963 C.ar      1 <0>         0.0000
      9 C9          4.5854    1.1867    1.2569 C.ar      1 <0>         0.0000
     10 C10         1.0552   -2.2327    2.3936 C.ar      1 <0>         0.0000
     11 C11         3.5386    0.7009    0.2913 C.2       1 <0>         0.0000
     12 C12         2.0775    0.9713    0.6391 C.3       1 <0>         0.0000
     13 N1          4.1756    1.9727    2.2679 N.ar      1 <0>         0.0000
     14 N2          0.8046   -1.8790    3.6401 N.ar      1 <0>         0.0000
     15 O1          3.8520    0.0759   -0.7117 O.2       1 <0>         0.0000
     16 Br1         0.8470   -4.1034    1.9660 Br        1 <0>         0.0000
     17 H1          7.9177    0.9710    1.8807 H         1 <0>         0.0000
     18 H2          7.1596    2.4407    3.7779 H         1 <0>         0.0000
     19 H3          6.1752    0.1662    0.2318 H         1 <0>         0.0000
     20 H4          1.5009    1.4157    3.3192 H         1 <0>         0.0000
     21 H5          1.6486   -1.7312    0.3712 H         1 <0>         0.0000
     22 H6          4.7430    3.0364    3.9440 H         1 <0>         0.0000
     23 H7          0.7509   -0.3025    4.9737 H         1 <0>         0.0000
     24 H8          1.5021    0.8396   -0.2798 H         1 <0>         0.0000
     25 H9          1.9630    1.9915    1.0077 H         1 <0>         0.0000
@<TRIPOS>BOND
     1    1    2 ar
     2    1    3 ar
     3    1   17 1
     4    2    6 ar
     5    2   18 1
     6    3    9 ar
     7    3   19 1
     8    4    7 ar
     9    4    8 ar
    10    4   20 1
    11    5    8 ar
    12    5   10 ar
    13    5   21 1
    14    6   13 ar
    15    6   22 1
    16    7   14 ar
    17    7   23 1
    18    8   12 1
    19    9   11 1
    20    9   13 ar
    21   10   14 ar
    22   10   16 1
    23   11   12 1
    24   11   15 2
    25   12   24 1
    26   12   25 1
