@<TRIPOS>MOLECULE
*****
   28    29     0     0     0
SMALL
NO_CHARGES

@<TRIPOS>ATOM
      1 C1          3.8153   -8.3823    6.0275 C.ar      1 <0>         0.0000
      2 C2          4.5059   -5.2448    2.1176 C.ar      1 <0>         0.0000
      3 C3          3.1972   -8.2414    4.8031 C.ar      1 <0>         0.0000
      4 C4          5.1482   -5.3727    3.3333 C.ar      1 <0>         0.0000
      5 C5          4.8938   -7.5360    6.3915 C.ar      1 <0>         0.0000
      6 C6          3.4360   -6.0882    1.7396 C.ar      1 <0>         0.0000
      7 C7          4.7157   -6.3763    4.2407 C.ar      1 <0>         0.0000
      8 C8          3.6329   -7.2432    3.8895 C.ar      1 <0>         0.0000
      9 C9          5.3270   -6.5595    5.5163 C.ar      1 <0>         0.0000
     10 C10         3.0012   -7.0827    2.6080 C.ar      1 <0>         0.0000
     11 C11         0.5674   -6.6200    0.7407 C.2       1 <0>         0.0000
     12 C12         0.4913   -9.1483    0.9744 C.3       1 <0>         0.0000
     13 C13         1.3970   -7.9276    1.0205 C.3       1 <0>         0.0000
     14 O1         -0.2113   -6.2642    1.6573 O.co2     1 <0>         0.0000
     15 O2          0.7751   -6.1239   -0.4029 O.co2     1 <0>         0.0000
     16 O3          6.3747   -5.7091    5.8300 O.3       1 <0>         0.0000
     17 O4          2.0151   -7.9619    2.3394 O.3       1 <0>         0.0000
     18 H1          3.4789   -9.1429    6.7283 H         1 <0>         0.0000
     19 H2          4.8195   -4.4691    1.4219 H         1 <0>         0.0000
     20 H3          2.3666   -8.8759    4.5161 H         1 <0>         0.0000
     21 H4          5.9673   -4.7184    3.6112 H         1 <0>         0.0000
     22 H5          5.3776   -7.6543    7.3617 H         1 <0>         0.0000
     23 H6          2.9375   -5.9329    0.7887 H         1 <0>         0.0000
     24 H7         -0.2972   -9.0374    1.7246 H         1 <0>         0.0000
     25 H8          0.0251   -9.2140   -0.0141 H         1 <0>         0.0000
     26 H9          1.0500  -10.0729    1.1673 H         1 <0>         0.0000
     27 H10         2.1992   -8.0089    0.2777 H         1 <0>         0.0000
     28 H11         6.6765   -5.9320    6.7242 H         1 <0>         0.0000
@<TRIPOS>BOND
     1    1    3 ar
     2    1    5 ar
     3    1   18 1
     4    2    4 ar
     5    2    6 ar
     6    2   19 1
     7    3    8 ar
     8    3   20 1
     9    4    7 ar
    10    4   21 1
    11    5    9 ar
    12    5   22 1
    13    6   10 ar
    14    6   23 1
    15    7    8 ar
    16    7    9 ar
    17    8   10 ar
    18    9   16 1
    19   10   17 1
    20   11   13 1
    21   11   14 1
    22   11   15 2
    23   12   13 1
    24   12   24 1
    25   12   25 1
    26   12   26 1
    27   13   17 1
    28   13   27 1
    29   16   28 1
