@<TRIPOS>MOLECULE
*****
   29    30     0     0     0
SMALL
NO_CHARGES

@<TRIPOS>ATOM
      1 C1          0.3851    2.0979    1.7773 C.ar      1 <0>         0.0000
      2 C2         -2.2786    2.9171    1.9183 C.ar      1 <0>         0.0000
      3 C3         -0.6211    1.2047    1.3654 C.ar      1 <0>         0.0000
      4 C4          0.0849    3.3713    2.2532 C.ar      1 <0>         0.0000
      5 C5         -1.2692    3.7915    2.3246 C.ar      1 <0>         0.0000
      6 C6         -1.9297    1.6496    1.4510 C.ar      1 <0>         0.0000
      7 C7          0.0126   -0.2992   -0.7088 C.3       1 <0>         0.0000
      8 C8          1.1898   -1.2100   -0.2870 C.3       1 <0>         0.0000
      9 C9         -0.2818   -0.1547    0.8155 C.3       1 <0>         0.0000
     10 C10         2.3784    3.8985    2.6224 C.3       1 <0>         0.0000
     11 C11        -2.8293    5.5016    2.8898 C.3       1 <0>         0.0000
     12 N1          1.1028   -0.6357    1.0863 N.3       1 <0>         0.0000
     13 O1          1.0107    4.2856    2.6766 O.3       1 <0>         0.0000
     14 O2         -1.4826    5.0518    2.8006 O.3       1 <0>         0.0000
     15 F1         -2.9452    0.8203    1.0572 F         1 <0>         0.0000
     16 H1          1.4062    1.7413    1.7171 H         1 <0>         0.0000
     17 H2         -3.3262    3.1896    1.9538 H         1 <0>         0.0000
     18 H3          0.3448    0.6447   -1.1465 H         1 <0>         0.0000
     19 H4         -0.7764   -0.7362   -1.3232 H         1 <0>         0.0000
     20 H5          0.9268   -2.2757   -0.3417 H         1 <0>         0.0000
     21 H6          2.1568   -1.0549   -0.7768 H         1 <0>         0.0000
     22 H7         -1.0535   -0.8763    1.1145 H         1 <0>         0.0000
     23 H8          2.9442    4.7524    2.9979 H         1 <0>         0.0000
     24 H9          2.6923    3.6765    1.5945 H         1 <0>         0.0000
     25 H10         2.5736    3.0242    3.2562 H         1 <0>         0.0000
     26 H11        -2.7785    6.5157    3.2884 H         1 <0>         0.0000
     27 H12        -3.4173    4.8725    3.5701 H         1 <0>         0.0000
     28 H13        -3.3109    5.5220    1.9040 H         1 <0>         0.0000
     29 H14         1.1711   -1.3122    1.8447 H         1 <0>         0.0000
@<TRIPOS>BOND
     1    1    3 ar
     2    1    4 ar
     3    1   16 1
     4    2    5 ar
     5    2    6 ar
     6    2   17 1
     7    3    6 ar
     8    3    9 1
     9    4    5 ar
    10    4   13 1
    11    5   14 1
    12    6   15 1
    13    7    8 1
    14    7    9 1
    15    7   18 1
    16    7   19 1
    17    8   12 1
    18    8   20 1
    19    8   21 1
    20    9   12 1
    21    9   22 1
    22   10   13 1
    23   10   23 1
    24   10   24 1
    25   10   25 1
    26   11   14 1
    27   11   26 1
    28   11   27 1
    29   11   28 1
    30   12   29 1
