@<TRIPOS>MOLECULE
*****
   47    50     0     0     0
SMALL
NO_CHARGES

@<TRIPOS>ATOM
      1 C1          3.5186   -2.0524    4.3138 C.1       1 <0>         0.0000
      2 C2          6.8370   -2.8375    5.7824 C.ar      1 <0>         0.0000
      3 C3          7.6959   -2.6080    4.6991 C.ar      1 <0>         0.0000
      4 C4          5.4670   -2.6645    5.6136 C.ar      1 <0>         0.0000
      5 C5          7.1828   -2.2225    3.4646 C.ar      1 <0>         0.0000
      6 C6          5.9446   -0.9994    0.8939 C.2       1 <0>         0.0000
      7 C7          4.9508   -0.8360   -0.1208 C.2       1 <0>         0.0000
      8 C8          4.9395   -2.2615    4.3716 C.ar      1 <0>         0.0000
      9 C9          5.8002   -2.0388    3.2654 C.ar      1 <0>         0.0000
     10 C10         5.3265   -1.6224    1.9552 C.2       1 <0>         0.0000
     11 C11         3.7892   -1.3700    0.3734 C.2       1 <0>         0.0000
     12 C12         0.1031    2.0486    0.5574 C.3       1 <0>         0.0000
     13 C13        -0.0405    1.3092   -0.8001 C.3       1 <0>         0.0000
     14 C14        -0.9169    0.2385    2.0488 C.3       1 <0>         0.0000
     15 C15         1.5762    0.2009    1.4461 C.3       1 <0>         0.0000
     16 C16        -0.7697   -1.0207   -0.0487 C.3       1 <0>         0.0000
     17 C17         0.3368    1.0694    1.7198 C.3       1 <0>         0.0000
     18 C18         0.3683   -0.1665   -0.6691 C.3       1 <0>         0.0000
     19 C19        -2.7926   -1.0450    1.2639 C.3       1 <0>         0.0000
     20 C20         2.3876   -1.4677   -0.1413 C.3       1 <0>         0.0000
     21 N1          2.3659   -1.8842    4.3569 N.1       1 <0>         0.0000
     22 N2         -1.6220   -0.2719    0.8724 N.3       1 <0>         0.0000
     23 N3          1.6577   -0.2152    0.0340 N.3       1 <0>         0.0000
     24 O1          4.0138   -1.8533    1.6351 O.3       1 <0>         0.0000
     25 H1          7.2328   -3.1478    6.7448 H         1 <0>         0.0000
     26 H2          8.7676   -2.7447    4.8155 H         1 <0>         0.0000
     27 H3          4.7842   -2.8282    6.4416 H         1 <0>         0.0000
     28 H4          7.8567   -2.0797    2.6256 H         1 <0>         0.0000
     29 H5          6.9749   -0.6716    0.8545 H         1 <0>         0.0000
     30 H6          5.0691   -0.3654   -1.0877 H         1 <0>         0.0000
     31 H7          0.9547    2.7366    0.5143 H         1 <0>         0.0000
     32 H8         -0.7871    2.6535    0.7572 H         1 <0>         0.0000
     33 H9         -1.0706    1.3657   -1.1609 H         1 <0>         0.0000
     34 H10         0.6060    1.7770   -1.5488 H         1 <0>         0.0000
     35 H11        -0.6285   -0.5776    2.7391 H         1 <0>         0.0000
     36 H12        -1.6266    0.8753    2.5913 H         1 <0>         0.0000
     37 H13         2.4823    0.7710    1.6884 H         1 <0>         0.0000
     38 H14         1.5628   -0.6648    2.1234 H         1 <0>         0.0000
     39 H15        -1.4143   -1.3731   -0.8623 H         1 <0>         0.0000
     40 H16        -0.3417   -1.9261    0.4252 H         1 <0>         0.0000
     41 H17         0.5579    1.6416    2.6283 H         1 <0>         0.0000
     42 H18         0.5556   -0.5686   -1.6714 H         1 <0>         0.0000
     43 H19        -3.3588   -1.3410    0.3743 H         1 <0>         0.0000
     44 H20        -3.4465   -0.4316    1.8929 H         1 <0>         0.0000
     45 H21        -2.5389   -1.9618    1.8306 H         1 <0>         0.0000
     46 H22         2.4230   -1.6956   -1.2119 H         1 <0>         0.0000
     47 H23         1.9095   -2.3249    0.3656 H         1 <0>         0.0000
@<TRIPOS>BOND
     1    1    8 1
     2    1   21 3
     3    2    3 ar
     4    2    4 ar
     5    2   25 1
     6    3    5 ar
     7    3   26 1
     8    4    8 ar
     9    4   27 1
    10    5    9 ar
    11    5   28 1
    12    6    7 1
    13    6   10 2
    14    6   29 1
    15    7   11 2
    16    7   30 1
    17    8    9 ar
    18    9   10 1
    19   10   24 1
    20   11   20 1
    21   11   24 1
    22   12   13 1
    23   12   17 1
    24   12   31 1
    25   12   32 1
    26   13   18 1
    27   13   33 1
    28   13   34 1
    29   14   17 1
    30   14   22 1
    31   14   35 1
    32   14   36 1
    33   15   17 1
    34   15   23 1
    35   15   37 1
    36   15   38 1
    37   16   18 1
    38   16   22 1
    39   16   39 1
    40   16   40 1
    41   17   41 1
    42   18   23 1
    43   18   42 1
    44   19   22 1
    45   19   43 1
    46   19   44 1
    47   19   45 1
    48   20   23 1
    49   20   46 1
    50   20   47 1
