@<TRIPOS>MOLECULE
*****
   34    36     0     0     0
SMALL
NO_CHARGES

@<TRIPOS>ATOM
      1 C1         -2.9208   -2.2569   -1.5608 C.ar      1 <0>         0.0000
      2 C2         -2.1378   -2.6627    0.6710 C.ar      1 <0>         0.0000
      3 C3         -2.0463   -1.1620   -1.6269 C.ar      1 <0>         0.0000
      4 C4         -2.9646   -3.0232   -0.4016 C.ar      1 <0>         0.0000
      5 C5         -1.2384   -0.8760   -0.5045 C.ar      1 <0>         0.0000
      6 C6         -0.9178    2.3364   -4.5594 C.3       1 <0>         0.0000
      7 C7         -1.7229    3.3744   -3.8064 C.3       1 <0>         0.0000
      8 C8          1.1675   -0.0189   -0.2181 C.3       1 <0>         0.0000
      9 C9          0.7081    0.6244   -1.5070 C.3       1 <0>         0.0000
     10 C10        -2.2082    1.9522   -3.8876 C.3       1 <0>         0.0000
     11 C11        -0.2942    0.2973   -0.3886 C.3       1 <0>         0.0000
     12 C12        -0.8410    1.4358    0.4703 C.3       1 <0>         0.0000
     13 C13        -2.0139   -0.3738   -2.9138 C.3       1 <0>         0.0000
     14 N1         -1.3116   -1.6196    0.6113 N.ar      1 <0>         0.0000
     15 N2         -2.1438    1.1154   -2.6621 N.4       1 <0>         0.0000
     16 Br1        -4.1239   -4.5208   -0.2658 Br        1 <0>         0.0000
     17 H1         -3.5553   -2.5120   -2.4051 H         1 <0>         0.0000
     18 H2         -2.1480   -3.2334    1.5968 H         1 <0>         0.0000
     19 H3         -0.9156    2.3553   -5.6439 H         1 <0>         0.0000
     20 H4          0.0144    2.0038   -4.1127 H         1 <0>         0.0000
     21 H5         -1.3257    3.7280   -2.8587 H         1 <0>         0.0000
     22 H6         -2.2824    4.1181   -4.3634 H         1 <0>         0.0000
     23 H7          1.4646   -1.0610   -0.2615 H         1 <0>         0.0000
     24 H8          1.7312    0.5859    0.4847 H         1 <0>         0.0000
     25 H9          0.9774    1.6664   -1.6699 H         1 <0>         0.0000
     26 H10         0.7529   -0.0005   -2.3945 H         1 <0>         0.0000
     27 H11        -3.0800    1.7084   -4.4855 H         1 <0>         0.0000
     28 H12        -0.1170    2.2525    0.5455 H         1 <0>         0.0000
     29 H13        -1.0460    1.0664    1.4785 H         1 <0>         0.0000
     30 H14        -1.7812    1.8533    0.0841 H         1 <0>         0.0000
     31 H15        -1.0864   -0.4961   -3.4747 H         1 <0>         0.0000
     32 H16        -2.8427   -0.6551   -3.5651 H         1 <0>         0.0000
     33 H17        -1.3263    1.3792   -2.0895 H         1 <0>         0.0000
     34 H18        -2.9704    1.2856   -2.0764 H         1 <0>         0.0000
@<TRIPOS>BOND
     1    1    3 ar
     2    1    4 ar
     3    1   17 1
     4    2    4 ar
     5    2   14 ar
     6    2   18 1
     7    3    5 ar
     8    3   13 1
     9    4   16 1
    10    5   11 1
    11    5   14 ar
    12    6    7 1
    13    6   10 1
    14    6   19 1
    15    6   20 1
    16    7   10 1
    17    7   21 1
    18    7   22 1
    19    8    9 1
    20    8   11 1
    21    8   23 1
    22    8   24 1
    23    9   11 1
    24    9   25 1
    25    9   26 1
    26   10   15 1
    27   10   27 1
    28   11   12 1
    29   12   28 1
    30   12   29 1
    31   12   30 1
    32   13   15 1
    33   13   31 1
    34   13   32 1
    35   15   33 1
    36   15   34 1
