@<TRIPOS>MOLECULE
*****
   30    31     0     0     0
SMALL
NO_CHARGES

@<TRIPOS>ATOM
      1 C1          5.1777   -0.0330   -1.0248 C.ar      1 <0>         0.0000
      2 C2          1.0470   -1.7490    1.7750 C.ar      1 <0>         0.0000
      3 C3          1.3185    0.0258    0.1301 C.ar      1 <0>         0.0000
      4 C4          5.9125    1.1027   -0.7067 C.ar      1 <0>         0.0000
      5 C5          0.1460   -0.9575    2.4852 C.ar      1 <0>         0.0000
      6 C6          0.3958    0.8067    0.8201 C.ar      1 <0>         0.0000
      7 C7          4.3017   -0.1233    1.2353 C.ar      1 <0>         0.0000
      8 C8          1.6594   -1.2463    0.6188 C.ar      1 <0>         0.0000
      9 C9          4.3347   -0.6296   -0.0737 C.ar      1 <0>         0.0000
     10 C10         5.8717    1.6317    0.5912 C.ar      1 <0>         0.0000
     11 C11        -0.1731    0.3115    1.9969 C.ar      1 <0>         0.0000
     12 C12         5.0727    0.9865    1.5549 C.ar      1 <0>         0.0000
     13 N1          2.5070   -2.1298   -0.1244 N.2       1 <0>         0.0000
     14 N2          3.6627   -1.8192   -0.4987 N.2       1 <0>         0.0000
     15 N3         -2.8368    0.8973    2.1983 N.pl3     1 <0>         0.0000
     16 O1         -1.3713    0.8558    4.2817 O.2       1 <0>         0.0000
     17 O2         -1.0983    2.7234    2.5310 O.2       1 <0>         0.0000
     18 O3          6.6244    2.7289    0.8612 O.3       1 <0>         0.0000
     19 S1         -1.3465    1.3248    2.8930 S.o2      1 <0>         0.0000
     20 Cl1         5.0608    1.6192    3.1971 Cl        1 <0>         0.0000
     21 H1          5.2332   -0.4688   -2.0179 H         1 <0>         0.0000
     22 H2          1.2988   -2.7488    2.1168 H         1 <0>         0.0000
     23 H3          1.7808    0.3993   -0.7780 H         1 <0>         0.0000
     24 H4          6.5478    1.5898   -1.4399 H         1 <0>         0.0000
     25 H5         -0.3012   -1.3128    3.4081 H         1 <0>         0.0000
     26 H6          0.1357    1.8000    0.4682 H         1 <0>         0.0000
     27 H7          3.7015   -0.5916    2.0055 H         1 <0>         0.0000
     28 H8         -3.4368    0.4835    2.9108 H         1 <0>         0.0000
     29 H9         -3.2685    1.7257    1.7905 H         1 <0>         0.0000
     30 H10         6.5068    2.9768    1.7962 H         1 <0>         0.0000
@<TRIPOS>BOND
     1    1    4 ar
     2    1    9 ar
     3    1   21 1
     4    2    5 ar
     5    2    8 ar
     6    2   22 1
     7    3    6 ar
     8    3    8 ar
     9    3   23 1
    10    4   10 ar
    11    4   24 1
    12    5   11 ar
    13    5   25 1
    14    6   11 ar
    15    6   26 1
    16    7    9 ar
    17    7   12 ar
    18    7   27 1
    19    8   13 1
    20    9   14 1
    21   10   12 ar
    22   10   18 1
    23   11   19 1
    24   12   20 1
    25   13   14 2
    26   15   19 1
    27   15   28 1
    28   15   29 1
    29   16   19 2
    30   17   19 2
    31   18   30 1
