@<TRIPOS>MOLECULE
*****
   39    41     0     0     0
SMALL
NO_CHARGES

@<TRIPOS>ATOM
      1 C1          0.6241   -0.5178   -0.7911 C.ar      1 <0>         0.0000
      2 C2         -1.8887   -1.1963   -1.8480 C.ar      1 <0>         0.0000
      3 C3         -0.5369   -0.0961   -0.1089 C.ar      1 <0>         0.0000
      4 C4          0.5363   -1.2362   -1.9780 C.ar      1 <0>         0.0000
      5 C5         -0.7188   -1.5733   -2.5072 C.ar      1 <0>         0.0000
      6 C6         -1.7806   -0.4644   -0.6612 C.ar      1 <0>         0.0000
      7 C7          0.3032    1.7460    1.4019 C.2       1 <0>         0.0000
      8 C8         -0.4529    0.6588    1.1566 C.2       1 <0>         0.0000
      9 C9         -0.7847   -3.9070   -3.5968 C.2       1 <0>         0.0000
     10 C10         1.6426   -1.7853   -2.8547 C.3       1 <0>         0.0000
     11 C11         1.1323    2.4813    0.3736 C.3       1 <0>         0.0000
     12 C12         0.3014    2.3930    2.7684 C.3       1 <0>         0.0000
     13 C13         0.9107   -2.1046   -4.1806 C.3       1 <0>         0.0000
     14 C14         0.7304    3.9703    0.3077 C.3       1 <0>         0.0000
     15 C15        -0.1008    3.8784    2.6937 C.3       1 <0>         0.0000
     16 C16         0.7736    4.6371    1.6877 C.3       1 <0>         0.0000
     17 C17        -0.5655   -2.3925   -3.7717 C.3       1 <0>         0.0000
     18 O1         -0.7297   -4.6757   -4.5298 O.2       1 <0>         0.0000
     19 O2         -1.0241   -4.3629   -2.3399 O.3       1 <0>         0.0000
     20 Cl1        -3.2686    0.0303    0.1363 Cl        1 <0>         0.0000
     21 H1          1.5925   -0.2820   -0.3590 H         1 <0>         0.0000
     22 H2         -2.8695   -1.4483   -2.2416 H         1 <0>         0.0000
     23 H3         -1.0926    0.2942    1.9590 H         1 <0>         0.0000
     24 H4          2.4677   -1.0799   -2.9904 H         1 <0>         0.0000
     25 H5          2.0658   -2.6942   -2.4076 H         1 <0>         0.0000
     26 H6          2.1941    2.4164    0.6540 H         1 <0>         0.0000
     27 H7          1.0329    2.0306   -0.6158 H         1 <0>         0.0000
     28 H8         -0.3607    1.8485    3.4491 H         1 <0>         0.0000
     29 H9          1.3164    2.3290    3.1888 H         1 <0>         0.0000
     30 H10         0.9230   -1.2206   -4.8251 H         1 <0>         0.0000
     31 H11         1.3492   -2.9342   -4.7377 H         1 <0>         0.0000
     32 H12         1.3911    4.4941   -0.3928 H         1 <0>         0.0000
     33 H13        -0.2864    4.0420   -0.0991 H         1 <0>         0.0000
     34 H14        -1.1528    3.9477    2.3884 H         1 <0>         0.0000
     35 H15        -0.0252    4.3328    3.6883 H         1 <0>         0.0000
     36 H16         0.4480    5.6811    1.6128 H         1 <0>         0.0000
     37 H17         1.8110    4.6562    2.0503 H         1 <0>         0.0000
     38 H18        -1.2577   -2.0926   -4.5631 H         1 <0>         0.0000
     39 H19        -1.0503   -3.6069   -1.7230 H         1 <0>         0.0000
@<TRIPOS>BOND
     1    1    3 ar
     2    1    4 ar
     3    1   21 1
     4    2    5 ar
     5    2    6 ar
     6    2   22 1
     7    3    6 ar
     8    3    8 1
     9    4    5 ar
    10    4   10 1
    11    5   17 1
    12    6   20 1
    13    7    8 2
    14    7   12 1
    15    7   11 1
    16    8   23 1
    17    9   17 1
    18    9   18 2
    19    9   19 1
    20   10   13 1
    21   10   24 1
    22   10   25 1
    23   11   14 1
    24   11   26 1
    25   11   27 1
    26   12   15 1
    27   12   28 1
    28   12   29 1
    29   13   17 1
    30   13   30 1
    31   13   31 1
    32   14   16 1
    33   14   32 1
    34   14   33 1
    35   15   16 1
    36   15   34 1
    37   15   35 1
    38   16   36 1
    39   16   37 1
    40   17   38 1
    41   19   39 1
