@<TRIPOS>MOLECULE
*****
   19    20     0     0     0
SMALL
NO_CHARGES

@<TRIPOS>ATOM
      1 C1          0.4070   -0.5802   -0.9810 C.ar      1 <0>         0.0000
      2 C2         -0.4960   -1.5407   -1.4360 C.ar      1 <0>         0.0000
      3 C3          1.6665   -0.6922   -3.0792 C.ar      1 <0>         0.0000
      4 C4          0.7630   -1.6589   -3.5430 C.ar      1 <0>         0.0000
      5 C5          1.4676   -0.1797   -1.8052 C.ar      1 <0>         0.0000
      6 C6         -0.3096   -2.0749   -2.7134 C.ar      1 <0>         0.0000
      7 C7         -0.1455   -3.1166   -4.9344 C.2       1 <0>         0.0000
      8 C8          3.4377    0.4497   -0.6717 C.3       1 <0>         0.0000
      9 N1          0.8211   -2.2685   -4.7880 N.2       1 <0>         0.0000
     10 O1          2.3251    0.8412   -1.3411 O.3       1 <0>         0.0000
     11 F1          3.1522   -0.2638    0.4437 F         1 <0>         0.0000
     12 F2          4.1043    1.5512   -0.3080 F         1 <0>         0.0000
     13 F3          4.2594   -0.3177   -1.4252 F         1 <0>         0.0000
     14 S1         -1.2636   -3.2808   -3.5570 S.3       1 <0>         0.0000
     15 S2         -0.3197   -4.0435   -6.4220 S.3       1 <0>         0.0000
     16 H1          0.2993   -0.1356    0.0025 H         1 <0>         0.0000
     17 H2         -1.3213   -1.8567   -0.8056 H         1 <0>         0.0000
     18 H3          2.4902   -0.3583   -3.7005 H         1 <0>         0.0000
     19 H4         -1.4238   -4.7205   -6.0439 H         1 <0>         0.0000
@<TRIPOS>BOND
     1    1    2 ar
     2    1    5 ar
     3    1   16 1
     4    2    6 ar
     5    2   17 1
     6    3    4 ar
     7    3    5 ar
     8    3   18 1
     9    4    6 ar
    10    4    9 1
    11    5   10 1
    12    6   14 1
    13    7    9 2
    14    7   14 1
    15    7   15 1
    16    8   10 1
    17    8   11 1
    18    8   12 1
    19    8   13 1
    20   15   19 1
