@<TRIPOS>MOLECULE
*****
   33    35     0     0     0
SMALL
NO_CHARGES

@<TRIPOS>ATOM
      1 C1          2.9092   -1.4205    2.2898 C.ar      1 <0>         0.0000
      2 C2          1.6933   -1.0000    2.8023 C.ar      1 <0>         0.0000
      3 C3          3.0192   -1.7951    0.9385 C.ar      1 <0>         0.0000
      4 C4         -2.0774    0.7973    6.3039 C.ar      1 <0>         0.0000
      5 C5         -2.7273    1.2437    7.4375 C.ar      1 <0>         0.0000
      6 C6          0.5436   -0.9389    1.9816 C.ar      1 <0>         0.0000
      7 C7          1.8965   -1.7393    0.1224 C.ar      1 <0>         0.0000
      8 C8          0.6473   -1.3115    0.6322 C.ar      1 <0>         0.0000
      9 C9         -2.8458    0.6774    5.1322 C.ar      1 <0>         0.0000
     10 C10        -4.0981    1.5431    7.3381 C.ar      1 <0>         0.0000
     11 C11        -2.2103    0.2055    3.8867 C.2       1 <0>         0.0000
     12 C12        -0.7037   -0.4862    2.5903 C.2       1 <0>         0.0000
     13 C13        -4.8908    2.0356    8.5198 C.3       1 <0>         0.0000
     14 C14         3.0547   -2.5170   -1.8336 C.3       1 <0>         0.0000
     15 N1         -4.1513    0.9751    5.0859 N.ar      1 <0>         0.0000
     16 N2         -4.7712    1.4049    6.1829 N.ar      1 <0>         0.0000
     17 N3         -0.8728   -0.1236    3.8409 N.2       1 <0>         0.0000
     18 N4         -2.8477    0.0617    2.7428 N.2       1 <0>         0.0000
     19 O1         -1.8443   -0.4002    1.8744 O.3       1 <0>         0.0000
     20 O2         -0.4256   -1.2709   -0.1970 O.3       1 <0>         0.0000
     21 O3          1.8494   -2.0724   -1.2120 O.3       1 <0>         0.0000
     22 H1          3.7854   -1.4633    2.9295 H         1 <0>         0.0000
     23 H2          1.5948   -0.7085    3.8418 H         1 <0>         0.0000
     24 H3          3.9749   -2.1234    0.5448 H         1 <0>         0.0000
     25 H4         -1.0228    0.5438    6.2905 H         1 <0>         0.0000
     26 H5         -2.2034    1.3632    8.3826 H         1 <0>         0.0000
     27 H6         -4.4734    2.9709    8.9088 H         1 <0>         0.0000
     28 H7         -5.9265    2.2075    8.2228 H         1 <0>         0.0000
     29 H8         -4.8727    1.3041    9.3353 H         1 <0>         0.0000
     30 H9          2.7976   -2.7234   -2.8728 H         1 <0>         0.0000
     31 H10         3.4255   -3.4324   -1.3584 H         1 <0>         0.0000
     32 H11         3.8256   -1.7390   -1.7937 H         1 <0>         0.0000
     33 H12        -0.1236   -1.5691   -1.0752 H         1 <0>         0.0000
@<TRIPOS>BOND
     1    1    2 ar
     2    1    3 ar
     3    1   22 1
     4    2    6 ar
     5    2   23 1
     6    3    7 ar
     7    3   24 1
     8    4    5 ar
     9    4    9 ar
    10    4   25 1
    11    5   10 ar
    12    5   26 1
    13    6    8 ar
    14    6   12 1
    15    7    8 ar
    16    7   21 1
    17    8   20 1
    18    9   11 1
    19    9   15 ar
    20   10   13 1
    21   10   16 ar
    22   11   17 1
    23   11   18 2
    24   12   17 2
    25   12   19 1
    26   13   27 1
    27   13   28 1
    28   13   29 1
    29   14   21 1
    30   14   30 1
    31   14   31 1
    32   14   32 1
    33   15   16 ar
    34   18   19 1
    35   20   33 1
