@<TRIPOS>MOLECULE
*****
   29    30     0     0     0
SMALL
NO_CHARGES

@<TRIPOS>ATOM
      1 C1         -0.0193    5.7498    3.4628 C.ar      1 <0>         0.0000
      2 C2         -0.5150    5.4136    2.1983 C.ar      1 <0>         0.0000
      3 C3          1.0132    4.9962    4.0285 C.ar      1 <0>         0.0000
      4 C4          0.0223    4.3286    1.5011 C.ar      1 <0>         0.0000
      5 C5          1.5437    3.9042    3.3351 C.ar      1 <0>         0.0000
      6 C6          1.0555    3.5644    2.0670 C.ar      1 <0>         0.0000
      7 C7          0.8374   -0.0049    1.2747 C.cat     1 <0>         0.0000
      8 C8          0.6154   -2.2937    1.0198 C.3       1 <0>         0.0000
      9 C9          2.0960   -1.8896    1.1312 C.3       1 <0>         0.0000
     10 C10         2.0617    2.6467   -0.1067 C.3       1 <0>         0.0000
     11 C11         1.6275    2.3679    1.3348 C.3       1 <0>         0.0000
     12 N1         -0.0314   -1.0212    1.3867 N.pl3     1 <0>         0.0000
     13 N2          0.5833    1.2818    1.3679 N.pl3     1 <0>         0.0000
     14 O1          2.0762   -0.4174    1.0621 O.3       1 <0>         0.0000
     15 H1         -0.4320    6.5985    4.0006 H         1 <0>         0.0000
     16 H2         -1.3105    6.0027    1.7511 H         1 <0>         0.0000
     17 H3          1.4057    5.2571    5.0071 H         1 <0>         0.0000
     18 H4         -0.3571    4.0983    0.5078 H         1 <0>         0.0000
     19 H5          2.3464    3.3212    3.7811 H         1 <0>         0.0000
     20 H6          0.3341   -2.5941    0.0064 H         1 <0>         0.0000
     21 H7          0.3487   -3.0828    1.7240 H         1 <0>         0.0000
     22 H8          2.5409   -2.1544    2.0912 H         1 <0>         0.0000
     23 H9          2.7192   -2.2386    0.3105 H         1 <0>         0.0000
     24 H10         1.2232    2.9807   -0.7223 H         1 <0>         0.0000
     25 H11         2.4982    1.7544   -0.5632 H         1 <0>         0.0000
     26 H12         2.8169    3.4367   -0.1034 H         1 <0>         0.0000
     27 H13         2.4780    1.9793    1.8984 H         1 <0>         0.0000
     28 H14        -1.0362   -0.8926    1.4034 H         1 <0>         0.0000
     29 H15        -0.3728    1.5754    1.5425 H         1 <0>         0.0000
@<TRIPOS>BOND
     1    1    3 ar
     2    1    2 ar
     3    1   15 1
     4    2    4 ar
     5    2   16 1
     6    3    5 ar
     7    3   17 1
     8    4    6 ar
     9    4   18 1
    10    5    6 ar
    11    5   19 1
    12    6   11 1
    13    7   12 1
    14    7   13 2
    15    7   14 1
    16    8    9 1
    17    8   12 1
    18    8   20 1
    19    8   21 1
    20    9   14 1
    21    9   22 1
    22    9   23 1
    23   10   11 1
    24   10   24 1
    25   10   25 1
    26   10   26 1
    27   11   13 1
    28   11   27 1
    29   12   28 1
    30   13   29 1
