@<TRIPOS>MOLECULE
*****
   24    24     0     0     0
SMALL
NO_CHARGES

@<TRIPOS>ATOM
      1 C1          1.8709   -1.2546   -0.1118 C.ar      1 <0>         0.0000
      2 C2          0.7748   -0.6298    0.4712 C.ar      1 <0>         0.0000
      3 C3          1.6812   -1.1462    2.6701 C.ar      1 <0>         0.0000
      4 C4          2.8774   -1.8740    0.6539 C.ar      1 <0>         0.0000
      5 C5          0.6922   -0.5842    1.8670 C.ar      1 <0>         0.0000
      6 C6          2.7526   -1.7982    2.0543 C.ar      1 <0>         0.0000
      7 C7          3.9863   -2.6042   -0.1516 C.2       1 <0>         0.0000
      8 N1         -1.8649   -1.1022    2.5813 N.pl3     1 <0>         0.0000
      9 N2          3.8329   -4.0915    2.9115 N.pl3     1 <0>         0.0000
     10 O1          4.3669   -1.9992   -1.1726 O.co2     1 <0>         0.0000
     11 O2          4.3175   -3.7519    0.2749 O.co2     1 <0>         0.0000
     12 O3         -0.3971    0.4868    4.0299 O.2       1 <0>         0.0000
     13 O4         -1.2965    1.2007    1.7497 O.2       1 <0>         0.0000
     14 O5          5.3165   -1.9165    2.8318 O.2       1 <0>         0.0000
     15 O6          3.5238   -2.1983    4.5792 O.2       1 <0>         0.0000
     16 S1         -0.7246    0.1748    2.6320 S.o2      1 <0>         0.0000
     17 S2          3.9964   -2.4465    3.2046 S.o2      1 <0>         0.0000
     18 H1          1.9914   -1.2723   -1.1901 H         1 <0>         0.0000
     19 H2          0.0006   -0.1675   -0.1338 H         1 <0>         0.0000
     20 H3          1.6356   -1.0798    3.7522 H         1 <0>         0.0000
     21 H4         -1.7416   -1.6937    3.4039 H         1 <0>         0.0000
     22 H5         -2.7932   -0.6773    2.5967 H         1 <0>         0.0000
     23 H6          4.0559   -4.2082    1.8894 H         1 <0>         0.0000
     24 H7          4.5170   -4.5760    3.4967 H         1 <0>         0.0000
@<TRIPOS>BOND
     1    1    2 ar
     2    1    4 ar
     3    1   18 1
     4    2    5 ar
     5    2   19 1
     6    3    5 ar
     7    3    6 ar
     8    3   20 1
     9    4    6 ar
    10    4    7 1
    11    5   16 1
    12    6   17 1
    13    7   10 1
    14    7   11 2
    15    8   16 1
    16    8   21 1
    17    8   22 1
    18    9   17 1
    19    9   23 1
    20    9   24 1
    21   12   16 2
    22   13   16 2
    23   14   17 2
    24   15   17 2
