@<TRIPOS>MOLECULE
*****
   39    41     0     0     0
SMALL
NO_CHARGES

@<TRIPOS>ATOM
      1 C1          1.3913    2.3599    0.4174 C.ar      1 <0>         0.0000
      2 C2          3.6259    1.7444    2.0048 C.ar      1 <0>         0.0000
      3 C3          1.2988    1.2947    1.3373 C.ar      1 <0>         0.0000
      4 C4          2.5600    3.1042    0.2973 C.ar      1 <0>         0.0000
      5 C5          3.6725    2.7892    1.0870 C.ar      1 <0>         0.0000
      6 C6          2.4423    1.0097    2.1104 C.ar      1 <0>         0.0000
      7 C7         -1.1910    0.9219    1.5645 C.2       1 <0>         0.0000
      8 C8          0.0744    0.4767    1.4463 C.2       1 <0>         0.0000
      9 C9          4.9260    4.7549    1.9195 C.2       1 <0>         0.0000
     10 C10         2.8565    4.2863   -0.6001 C.3       1 <0>         0.0000
     11 C11        -1.5929    2.3699    1.7303 C.3       1 <0>         0.0000
     12 C12        -2.3474   -0.0506    1.6310 C.3       1 <0>         0.0000
     13 C13         4.4010    4.3902   -0.5509 C.3       1 <0>         0.0000
     14 C14        -2.4402    2.5629    3.0058 C.3       1 <0>         0.0000
     15 C15        -3.1877    0.1497    2.9065 C.3       1 <0>         0.0000
     16 C16        -3.6398    1.6087    3.0462 C.3       1 <0>         0.0000
     17 C17         4.8239    3.7429    0.7902 C.3       1 <0>         0.0000
     18 O1          4.4596    5.8768    1.9203 O.2       1 <0>         0.0000
     19 O2          5.5956    4.2417    2.9876 O.3       1 <0>         0.0000
     20 Cl1         2.3964   -0.3101    3.2783 Cl        1 <0>         0.0000
     21 H1          0.5368    2.5697   -0.2198 H         1 <0>         0.0000
     22 H2          4.4787    1.5020    2.6312 H         1 <0>         0.0000
     23 H3          0.2334   -0.6007    1.4453 H         1 <0>         0.0000
     24 H4          2.4777    4.1540   -1.6183 H         1 <0>         0.0000
     25 H5          2.3956    5.1931   -0.1920 H         1 <0>         0.0000
     26 H6         -0.7193    3.0236    1.7670 H         1 <0>         0.0000
     27 H7         -2.1923    2.6796    0.8611 H         1 <0>         0.0000
     28 H8         -2.9973    0.1147    0.7582 H         1 <0>         0.0000
     29 H9         -1.9843   -1.0813    1.5673 H         1 <0>         0.0000
     30 H10         4.8344    3.8013   -1.3652 H         1 <0>         0.0000
     31 H11         4.7574    5.4176   -0.6427 H         1 <0>         0.0000
     32 H12        -1.8031    2.3825    3.8812 H         1 <0>         0.0000
     33 H13        -2.7758    3.6047    3.0657 H         1 <0>         0.0000
     34 H14        -4.0544   -0.5215    2.8891 H         1 <0>         0.0000
     35 H15        -2.5829   -0.1298    3.7788 H         1 <0>         0.0000
     36 H16        -4.3284    1.8552    2.2257 H         1 <0>         0.0000
     37 H17        -4.2006    1.7452    3.9784 H         1 <0>         0.0000
     38 H18         5.7800    3.2148    0.7281 H         1 <0>         0.0000
     39 H19         5.5693    4.9254    3.6847 H         1 <0>         0.0000
@<TRIPOS>BOND
     1    1    3 ar
     2    1    4 ar
     3    1   21 1
     4    2    5 ar
     5    2    6 ar
     6    2   22 1
     7    3    6 ar
     8    3    8 1
     9    4    5 ar
    10    4   10 1
    11    5   17 1
    12    6   20 1
    13    7    8 2
    14    7   12 1
    15    7   11 1
    16    8   23 1
    17    9   17 1
    18    9   18 2
    19    9   19 1
    20   10   13 1
    21   10   24 1
    22   10   25 1
    23   11   14 1
    24   11   26 1
    25   11   27 1
    26   12   15 1
    27   12   28 1
    28   12   29 1
    29   13   17 1
    30   13   30 1
    31   13   31 1
    32   14   16 1
    33   14   32 1
    34   14   33 1
    35   15   16 1
    36   15   34 1
    37   15   35 1
    38   16   36 1
    39   16   37 1
    40   17   38 1
    41   19   39 1
