@<TRIPOS>MOLECULE
*****
   33    35     0     0     0
SMALL
NO_CHARGES

@<TRIPOS>ATOM
      1 C1         -3.3407   -1.9607   -1.3921 C.ar      1 <0>         0.0000
      2 C2         -2.5789   -2.7934    0.7278 C.ar      1 <0>         0.0000
      3 C3         -2.1939   -1.1634   -1.4559 C.ar      1 <0>         0.0000
      4 C4         -3.5336   -2.7886   -0.2899 C.ar      1 <0>         0.0000
      5 C5         -1.2784   -1.2283   -0.3824 C.ar      1 <0>         0.0000
      6 C6         -0.0341   -0.7822   -5.8960 C.3       1 <0>         0.0000
      7 C7          0.1143    0.4946   -5.0920 C.3       1 <0>         0.0000
      8 C8          1.2594   -1.0207    0.0088 C.3       1 <0>         0.0000
      9 C9          1.0107   -0.4903   -1.3879 C.3       1 <0>         0.0000
     10 C10        -1.1360   -0.3455   -4.9624 C.3       1 <0>         0.0000
     11 C11        -0.0542   -0.3541   -0.3173 C.3       1 <0>         0.0000
     12 C12        -0.3247    1.0196    0.2815 C.3       1 <0>         0.0000
     13 C13        -1.9729   -0.3101   -2.6847 C.3       1 <0>         0.0000
     14 N1         -1.4868   -2.0269    0.6788 N.ar      1 <0>         0.0000
     15 N2         -1.3060   -1.0904   -3.7388 N.3       1 <0>         0.0000
     16 Cl1        -4.9576   -3.8055   -0.1710 Cl        1 <0>         0.0000
     17 H1         -4.0786   -1.9316   -2.1904 H         1 <0>         0.0000
     18 H2         -2.7053   -3.4288    1.6024 H         1 <0>         0.0000
     19 H3         -0.2075   -0.7043   -6.9652 H         1 <0>         0.0000
     20 H4          0.5583   -1.6365   -5.5836 H         1 <0>         0.0000
     21 H5          0.8016    0.4741   -4.2528 H         1 <0>         0.0000
     22 H6          0.0432    1.4456   -5.6116 H         1 <0>         0.0000
     23 H7          1.2516   -2.0957    0.1572 H         1 <0>         0.0000
     24 H8          1.9490   -0.4813    0.6523 H         1 <0>         0.0000
     25 H9          1.5277    0.4164   -1.6937 H         1 <0>         0.0000
     26 H10         0.8332   -1.2018   -2.1875 H         1 <0>         0.0000
     27 H11        -2.0388    0.0640   -5.4276 H         1 <0>         0.0000
     28 H12         0.5944    1.6137    0.3185 H         1 <0>         0.0000
     29 H13        -0.7100    0.9226    1.3022 H         1 <0>         0.0000
     30 H14        -1.0626    1.5780   -0.3066 H         1 <0>         0.0000
     31 H15        -2.9442    0.0953   -3.0187 H         1 <0>         0.0000
     32 H16        -1.3339    0.5438   -2.4535 H         1 <0>         0.0000
     33 H17        -1.8375   -1.9403   -3.9215 H         1 <0>         0.0000
@<TRIPOS>BOND
     1    1    3 ar
     2    1    4 ar
     3    1   17 1
     4    2    4 ar
     5    2   14 ar
     6    2   18 1
     7    3    5 ar
     8    3   13 1
     9    4   16 1
    10    5   11 1
    11    5   14 ar
    12    6    7 1
    13    6   10 1
    14    6   19 1
    15    6   20 1
    16    7   10 1
    17    7   21 1
    18    7   22 1
    19    8    9 1
    20    8   11 1
    21    8   23 1
    22    8   24 1
    23    9   11 1
    24    9   25 1
    25    9   26 1
    26   10   15 1
    27   10   27 1
    28   11   12 1
    29   12   28 1
    30   12   29 1
    31   12   30 1
    32   13   15 1
    33   13   31 1
    34   13   32 1
    35   15   33 1
