@<TRIPOS>MOLECULE
*****
   35    38     0     0     0
SMALL
NO_CHARGES

@<TRIPOS>ATOM
      1 C1          7.3150   -3.8842   -4.7246 C.ar      1 <0>         0.0000
      2 C2          5.9793   -3.4600   -4.5055 C.ar      1 <0>         0.0000
      3 C3          6.2290    5.1033   -3.6635 C.ar      1 <0>         0.0000
      4 C4          7.5088    4.5523   -3.8894 C.ar      1 <0>         0.0000
      5 C5          8.6005   -2.1002   -0.3822 C.ar      1 <0>         0.0000
      6 C6          8.2798   -3.6575   -3.7655 C.ar      1 <0>         0.0000
      7 C7          5.6372   -2.8128   -3.3360 C.ar      1 <0>         0.0000
      8 C8          5.2387    4.3530   -3.0427 C.ar      1 <0>         0.0000
      9 C9          8.9441   -2.7476   -1.5501 C.ar      1 <0>         0.0000
     10 C10         7.2748   -1.6569   -0.1646 C.ar      1 <0>         0.0000
     11 C11         7.8081    3.2508   -3.4967 C.ar      1 <0>         0.0000
     12 C12         7.9608   -2.9946   -2.5478 C.ar      1 <0>         0.0000
     13 C13         6.6125   -2.5617   -2.3339 C.ar      1 <0>         0.0000
     14 C14         5.5223    3.0321   -2.6403 C.ar      1 <0>         0.0000
     15 C15         6.2949   -1.8626   -1.1231 C.ar      1 <0>         0.0000
     16 C16         4.6702    2.0722   -1.9914 C.2       1 <0>         0.0000
     17 C17         6.8106    2.4903   -2.8719 C.ar      1 <0>         0.0000
     18 C18         5.2786    0.8596   -1.7360 C.2       1 <0>         0.0000
     19 C19         4.5721   -0.2634   -1.1394 C.2       1 <0>         0.0000
     20 N1          4.9665   -1.4588   -0.8822 N.2       1 <0>         0.0000
     21 O1          3.3693    2.3079   -1.6483 O.3       1 <0>         0.0000
     22 S1          6.9613    0.8498   -2.2864 S.3       1 <0>         0.0000
     23 H1          7.5743   -4.3917   -5.6503 H         1 <0>         0.0000
     24 H2          5.2233   -3.6508   -5.2629 H         1 <0>         0.0000
     25 H3          6.0200    6.1221   -3.9769 H         1 <0>         0.0000
     26 H4          8.2719    5.1531   -4.3765 H         1 <0>         0.0000
     27 H5          9.3512   -1.9153    0.3820 H         1 <0>         0.0000
     28 H6          9.3044   -3.9845   -3.9290 H         1 <0>         0.0000
     29 H7          4.6144   -2.4934   -3.1638 H         1 <0>         0.0000
     30 H8          4.2584    4.7963   -2.8728 H         1 <0>         0.0000
     31 H9          9.9654   -3.0798   -1.7199 H         1 <0>         0.0000
     32 H10         7.0139   -1.1380    0.7533 H         1 <0>         0.0000
     33 H11         8.7951    2.8318   -3.6725 H         1 <0>         0.0000
     34 H12         3.5313   -0.0367   -0.8983 H         1 <0>         0.0000
     35 H13         3.1075    3.1866   -1.9648 H         1 <0>         0.0000
@<TRIPOS>BOND
     1    1    2 ar
     2    1    6 ar
     3    1   23 1
     4    2    7 ar
     5    2   24 1
     6    3    4 ar
     7    3    8 ar
     8    3   25 1
     9    4   11 ar
    10    4   26 1
    11    5    9 ar
    12    5   10 ar
    13    5   27 1
    14    6   12 ar
    15    6   28 1
    16    7   13 ar
    17    7   29 1
    18    8   14 ar
    19    8   30 1
    20    9   12 ar
    21    9   31 1
    22   10   15 ar
    23   10   32 1
    24   11   17 ar
    25   11   33 1
    26   12   13 ar
    27   13   15 ar
    28   14   16 1
    29   14   17 ar
    30   15   20 1
    31   16   18 2
    32   16   21 1
    33   17   22 1
    34   18   19 1
    35   18   22 1
    36   19   20 2
    37   19   34 1
    38   21   35 1
