@<TRIPOS>MOLECULE
*****
   33    35     0     0     0
SMALL
NO_CHARGES

@<TRIPOS>ATOM
      1 C1          2.5026   -2.1069    2.0989 C.ar      1 <0>         0.0000
      2 C2          1.4531   -1.4025    2.6646 C.ar      1 <0>         0.0000
      3 C3          3.0536   -1.6969    0.8714 C.ar      1 <0>         0.0000
      4 C4         -2.4697    0.0884    6.1430 C.ar      1 <0>         0.0000
      5 C5         -3.3312    0.1530    7.2203 C.ar      1 <0>         0.0000
      6 C6          0.9168   -0.2624    2.0229 C.ar      1 <0>         0.0000
      7 C7          2.5351   -0.5783    0.2315 C.ar      1 <0>         0.0000
      8 C8          1.4625    0.1516    0.7976 C.ar      1 <0>         0.0000
      9 C9         -2.6106    1.0764    5.1522 C.ar      1 <0>         0.0000
     10 C10        -4.2781    1.1930    7.2473 C.ar      1 <0>         0.0000
     11 C11        -1.7204    1.0631    3.9752 C.2       1 <0>         0.0000
     12 C12        -0.1888    0.4302    2.6780 C.2       1 <0>         0.0000
     13 C13        -5.2587    1.3443    8.3799 C.3       1 <0>         0.0000
     14 C14         4.0473   -0.7164   -1.6302 C.3       1 <0>         0.0000
     15 N1         -3.5292    2.0493    5.2216 N.ar      1 <0>         0.0000
     16 N2         -4.3563    2.1051    6.2633 N.ar      1 <0>         0.0000
     17 N3         -0.7469    0.1000    3.8197 N.2       1 <0>         0.0000
     18 N4         -1.7769    1.9453    2.9985 N.2       1 <0>         0.0000
     19 O1         -0.7551    1.5256    2.1300 O.3       1 <0>         0.0000
     20 O2          0.9842    1.2384    0.1416 O.3       1 <0>         0.0000
     21 O3          2.9677   -0.0594   -0.9673 O.3       1 <0>         0.0000
     22 H1          2.9063   -2.9809    2.6009 H         1 <0>         0.0000
     23 H2          1.0193   -1.7077    3.6101 H         1 <0>         0.0000
     24 H3          3.8754   -2.2539    0.4351 H         1 <0>         0.0000
     25 H4         -1.7100   -0.6790    6.0412 H         1 <0>         0.0000
     26 H5         -3.2863   -0.5737    8.0277 H         1 <0>         0.0000
     27 H6         -4.7370    1.4763    9.3343 H         1 <0>         0.0000
     28 H7         -5.8954    2.2123    8.2023 H         1 <0>         0.0000
     29 H8         -5.8905    0.4540    8.4720 H         1 <0>         0.0000
     30 H9          4.2262   -0.1509   -2.5449 H         1 <0>         0.0000
     31 H10         3.7809   -1.7491   -1.8832 H         1 <0>         0.0000
     32 H11         4.9511   -0.7071   -1.0101 H         1 <0>         0.0000
     33 H12         1.5075    1.3361   -0.6757 H         1 <0>         0.0000
@<TRIPOS>BOND
     1    1    2 ar
     2    1    3 ar
     3    1   22 1
     4    2    6 ar
     5    2   23 1
     6    3    7 ar
     7    3   24 1
     8    4    5 ar
     9    4    9 ar
    10    4   25 1
    11    5   10 ar
    12    5   26 1
    13    6    8 ar
    14    6   12 1
    15    7    8 ar
    16    7   21 1
    17    8   20 1
    18    9   11 1
    19    9   15 ar
    20   10   13 1
    21   10   16 ar
    22   11   17 1
    23   11   18 2
    24   12   17 2
    25   12   19 1
    26   13   27 1
    27   13   28 1
    28   13   29 1
    29   14   21 1
    30   14   30 1
    31   14   31 1
    32   14   32 1
    33   15   16 ar
    34   18   19 1
    35   20   33 1
