@<TRIPOS>MOLECULE
*****
   34    36     0     0     0
SMALL
NO_CHARGES

@<TRIPOS>ATOM
      1 C1          4.4567    4.8558   -3.3770 C.ar      1 <0>         0.0000
      2 C2          3.2025    4.9109   -2.8045 C.ar      1 <0>         0.0000
      3 C3          1.7918    6.1326    0.4640 C.ar      1 <0>         0.0000
      4 C4         -1.8364    6.8230    0.1192 C.ar      1 <0>         0.0000
      5 C5         -0.2027    7.9553   -1.2886 C.ar      1 <0>         0.0000
      6 C6          2.9692    6.5589    1.1054 C.ar      1 <0>         0.0000
      7 C7         -2.2512    8.0509    0.6317 C.ar      1 <0>         0.0000
      8 C8         -0.6296    9.1847   -0.7992 C.ar      1 <0>         0.0000
      9 C9          5.5709    5.3676   -2.6648 C.ar      1 <0>         0.0000
     10 C10         3.0576    5.4730   -1.5094 C.ar      1 <0>         0.0000
     11 C11         4.2429    5.9416   -0.8804 C.ar      1 <0>         0.0000
     12 C12        -0.7928    6.7694   -0.8157 C.ar      1 <0>         0.0000
     13 C13         1.8059    5.6148   -0.8286 C.ar      1 <0>         0.0000
     14 C14         4.1839    6.4884    0.4418 C.ar      1 <0>         0.0000
     15 C15        -1.6446    9.2192    0.1638 C.ar      1 <0>         0.0000
     16 N1          5.4753    5.8919   -1.4556 N.ar      1 <0>         0.0000
     17 N2         -0.4854    5.5009   -1.3995 N.2       1 <0>         0.0000
     18 N3          0.6821    5.0443   -1.4838 N.2       1 <0>         0.0000
     19 O1         -2.9514   10.5828    2.0245 O.2       1 <0>         0.0000
     20 O2         -1.0844   11.7395    0.7088 O.2       1 <0>         0.0000
     21 O3          5.3273    6.9079    1.0192 O.3       1 <0>         0.0000
     22 O4         -3.2746   11.2747   -0.3514 O.3       1 <0>         0.0000
     23 S1         -2.1855   10.7959    0.7962 S.o2      1 <0>         0.0000
     24 H1          4.6040    4.4251   -4.3629 H         1 <0>         0.0000
     25 H2          2.3272    4.5256   -3.3173 H         1 <0>         0.0000
     26 H3          0.8585    6.1896    1.0121 H         1 <0>         0.0000
     27 H4         -2.3025    5.8984    0.4469 H         1 <0>         0.0000
     28 H5          0.5890    7.9073   -2.0295 H         1 <0>         0.0000
     29 H6          2.9371    6.9470    2.1185 H         1 <0>         0.0000
     30 H7         -3.0287    8.1061    1.3870 H         1 <0>         0.0000
     31 H8         -0.1741   10.1082   -1.1424 H         1 <0>         0.0000
     32 H9          6.5650    5.3374   -3.1077 H         1 <0>         0.0000
     33 H10         6.0344    6.7426    0.3561 H         1 <0>         0.0000
     34 H11        -4.1697   11.1361    0.0140 H         1 <0>         0.0000
@<TRIPOS>BOND
     1    1    2 ar
     2    1    9 ar
     3    1   24 1
     4    2   10 ar
     5    2   25 1
     6    3    6 ar
     7    3   13 ar
     8    3   26 1
     9    4    7 ar
    10    4   12 ar
    11    4   27 1
    12    5    8 ar
    13    5   12 ar
    14    5   28 1
    15    6   14 ar
    16    6   29 1
    17    7   15 ar
    18    7   30 1
    19    8   15 ar
    20    8   31 1
    21    9   16 ar
    22    9   32 1
    23   10   11 ar
    24   10   13 ar
    25   11   14 ar
    26   11   16 ar
    27   12   17 1
    28   13   18 1
    29   14   21 1
    30   15   23 1
    31   17   18 2
    32   19   23 2
    33   20   23 2
    34   21   33 1
    35   22   23 1
    36   22   34 1
