@<TRIPOS>MOLECULE
*****
   34    36     0     0     0
SMALL
NO_CHARGES

@<TRIPOS>ATOM
      1 C1         -3.3612   -2.4493   -0.7655 C.ar      1 <0>         0.0000
      2 C2         -2.0124   -3.4254    0.9583 C.ar      1 <0>         0.0000
      3 C3         -2.3117   -1.5643   -1.0310 C.ar      1 <0>         0.0000
      4 C4         -3.2178   -3.3905    0.2504 C.ar      1 <0>         0.0000
      5 C5         -1.1311   -1.6496   -0.2538 C.ar      1 <0>         0.0000
      6 C6         -1.2112   -3.3218   -3.6478 C.3       1 <0>         0.0000
      7 C7         -0.4053   -2.6226   -4.7210 C.3       1 <0>         0.0000
      8 C8          1.3862   -1.2513    0.0590 C.3       1 <0>         0.0000
      9 C9          1.1724   -1.2146   -1.4353 C.3       1 <0>         0.0000
     10 C10        -1.6049   -1.9465   -4.1116 C.3       1 <0>         0.0000
     11 C11         0.0679   -0.7436   -0.4531 C.3       1 <0>         0.0000
     12 C12        -0.1568    0.7611   -0.3233 C.3       1 <0>         0.0000
     13 C13        -2.4808   -0.5845   -2.1622 C.3       1 <0>         0.0000
     14 N1         -1.0110   -2.5808    0.7031 N.ar      1 <0>         0.0000
     15 N2         -1.3944   -0.7774   -3.2144 N.4       1 <0>         0.0000
     16 Br1        -4.6110   -4.6170    0.6518 Br        1 <0>         0.0000
     17 H1         -4.2777   -2.4113   -1.3477 H         1 <0>         0.0000
     18 H2         -1.8531   -4.1535    1.7504 H         1 <0>         0.0000
     19 H3         -1.8703   -4.1358   -3.9297 H         1 <0>         0.0000
     20 H4         -0.7660   -3.4284   -2.6650 H         1 <0>         0.0000
     21 H5          0.5819   -2.2585   -4.4502 H         1 <0>         0.0000
     22 H6         -0.4957   -2.9484   -5.7516 H         1 <0>         0.0000
     23 H7          1.3913   -2.2227    0.5368 H         1 <0>         0.0000
     24 H8          2.0644   -0.5217    0.4885 H         1 <0>         0.0000
     25 H9          1.7077   -0.4608   -2.0100 H         1 <0>         0.0000
     26 H10         1.0769   -2.1843   -1.9190 H         1 <0>         0.0000
     27 H11        -2.5061   -1.8174   -4.7018 H         1 <0>         0.0000
     28 H12         0.8041    1.2793   -0.2729 H         1 <0>         0.0000
     29 H13        -0.7030    0.9848    0.5976 H         1 <0>         0.0000
     30 H14        -0.7069    1.2124   -1.1559 H         1 <0>         0.0000
     31 H15        -3.4353   -0.7238   -2.6710 H         1 <0>         0.0000
     32 H16        -2.4170    0.4536   -1.8360 H         1 <0>         0.0000
     33 H17        -0.4925   -0.8649   -2.7096 H         1 <0>         0.0000
     34 H18        -1.3205    0.0686   -3.7914 H         1 <0>         0.0000
@<TRIPOS>BOND
     1    1    3 ar
     2    1    4 ar
     3    1   17 1
     4    2    4 ar
     5    2   14 ar
     6    2   18 1
     7    3    5 ar
     8    3   13 1
     9    4   16 1
    10    5   11 1
    11    5   14 ar
    12    6    7 1
    13    6   10 1
    14    6   19 1
    15    6   20 1
    16    7   10 1
    17    7   21 1
    18    7   22 1
    19    8    9 1
    20    8   11 1
    21    8   23 1
    22    8   24 1
    23    9   11 1
    24    9   25 1
    25    9   26 1
    26   10   15 1
    27   10   27 1
    28   11   12 1
    29   12   28 1
    30   12   29 1
    31   12   30 1
    32   13   15 1
    33   13   31 1
    34   13   32 1
    35   15   33 1
    36   15   34 1
