@<TRIPOS>MOLECULE
*****
   28    29     0     0     0
SMALL
NO_CHARGES

@<TRIPOS>ATOM
      1 C1          3.5341   -8.2974    5.8998 C.ar      1 <0>         0.0000
      2 C2          4.4081   -4.4713    2.7054 C.ar      1 <0>         0.0000
      3 C3          2.7369   -7.5918    5.0236 C.ar      1 <0>         0.0000
      4 C4          5.2297   -5.1704    3.5675 C.ar      1 <0>         0.0000
      5 C5          4.9137   -7.9922    6.0239 C.ar      1 <0>         0.0000
      6 C6          3.0338   -4.7724    2.5657 C.ar      1 <0>         0.0000
      7 C7          4.6772   -6.2199    4.3490 C.ar      1 <0>         0.0000
      8 C8          3.2888   -6.5465    4.2339 C.ar      1 <0>         0.0000
      9 C9          5.4644   -6.9776    5.2659 C.ar      1 <0>         0.0000
     10 C10         2.4733   -5.8009    3.3142 C.ar      1 <0>         0.0000
     11 C11         0.0399   -4.0349    2.5509 C.2       1 <0>         0.0000
     12 C12        -0.9731   -6.3495    2.2864 C.3       1 <0>         0.0000
     13 C13         0.3227   -5.5543    2.2547 C.3       1 <0>         0.0000
     14 O1         -0.2825   -3.7646    3.7324 O.co2     1 <0>         0.0000
     15 O2          0.1401   -3.2924    1.5331 O.co2     1 <0>         0.0000
     16 O3          6.8058   -6.6433    5.3555 O.3       1 <0>         0.0000
     17 O4          1.1863   -6.1949    3.2381 O.3       1 <0>         0.0000
     18 H1          3.1110   -9.0939    6.5076 H         1 <0>         0.0000
     19 H2          4.8182   -3.6554    2.1138 H         1 <0>         0.0000
     20 H3          1.6796   -7.8094    4.9254 H         1 <0>         0.0000
     21 H4          6.2823   -4.9285    3.6655 H         1 <0>         0.0000
     22 H5          5.5374   -8.5556    6.7188 H         1 <0>         0.0000
     23 H6          2.4163   -4.1771    1.9013 H         1 <0>         0.0000
     24 H7         -1.4356   -6.2407    3.2718 H         1 <0>         0.0000
     25 H8         -1.6599   -5.9498    1.5331 H         1 <0>         0.0000
     26 H9         -0.7989   -7.4134    2.0813 H         1 <0>         0.0000
     27 H10         0.8118   -5.6441    1.2776 H         1 <0>         0.0000
     28 H11         7.2075   -7.2171    6.0261 H         1 <0>         0.0000
@<TRIPOS>BOND
     1    1    3 ar
     2    1    5 ar
     3    1   18 1
     4    2    4 ar
     5    2    6 ar
     6    2   19 1
     7    3    8 ar
     8    3   20 1
     9    4    7 ar
    10    4   21 1
    11    5    9 ar
    12    5   22 1
    13    6   10 ar
    14    6   23 1
    15    7    8 ar
    16    7    9 ar
    17    8   10 ar
    18    9   16 1
    19   10   17 1
    20   11   13 1
    21   11   14 1
    22   11   15 2
    23   12   13 1
    24   12   24 1
    25   12   25 1
    26   12   26 1
    27   13   17 1
    28   13   27 1
    29   16   28 1
