@<TRIPOS>MOLECULE
*****
   25    25     0     0     0
SMALL
NO_CHARGES

@<TRIPOS>ATOM
      1 C1          1.1955    0.1295    3.5486 C.2       1 <0>         0.0000
      2 C2          1.1911   -0.0784    2.2147 C.2       1 <0>         0.0000
      3 C3          3.2339   -1.1106    2.7460 C.2       1 <0>         0.0000
      4 C4         -1.0113    1.0942    1.6223 C.2       1 <0>         0.0000
      5 C5         -2.9695    2.1701    0.8476 C.3       1 <0>         0.0000
      6 C6          6.6079   -1.9411    1.2180 C.3       1 <0>         0.0000
      7 C7          0.1939    0.2963    1.1583 C.3       1 <0>         0.0000
      8 N1          4.3831   -1.7281    2.6492 N.2       1 <0>         0.0000
      9 N2          2.3225   -0.7797    1.7820 N.pl3     1 <0>         0.0000
     10 O1         -1.2852    1.4058    2.7638 O.2       1 <0>         0.0000
     11 O2          4.7209   -3.8062    1.1749 O.2       1 <0>         0.0000
     12 O3          4.2397   -1.5899    0.0544 O.2       1 <0>         0.0000
     13 O4         -1.7707    1.4163    0.5538 O.3       1 <0>         0.0000
     14 S1          2.6328   -0.5475    4.3057 S.3       1 <0>         0.0000
     15 S2          4.8585   -2.3465    1.1783 S.o2      1 <0>         0.0000
     16 H1          0.4357    0.6295    4.1278 H         1 <0>         0.0000
     17 H2         -3.4505    2.3327   -0.1161 H         1 <0>         0.0000
     18 H3         -2.7117    3.1216    1.3175 H         1 <0>         0.0000
     19 H4         -3.6202    1.6006    1.5145 H         1 <0>         0.0000
     20 H5          7.0449   -2.3602    0.3101 H         1 <0>         0.0000
     21 H6          6.7157   -0.8568    1.2411 H         1 <0>         0.0000
     22 H7          7.0396   -2.4022    2.1064 H         1 <0>         0.0000
     23 H8         -0.1850   -0.6081    0.6656 H         1 <0>         0.0000
     24 H9          0.6845    0.8724    0.3644 H         1 <0>         0.0000
     25 H10         2.5803   -0.9454    0.8060 H         1 <0>         0.0000
@<TRIPOS>BOND
     1    1    2 2
     2    1   14 1
     3    1   16 1
     4    2    7 1
     5    2    9 1
     6    3    8 2
     7    3    9 1
     8    3   14 1
     9    4    7 1
    10    4   10 2
    11    4   13 1
    12    5   13 1
    13    5   17 1
    14    5   18 1
    15    5   19 1
    16    6   15 1
    17    6   20 1
    18    6   21 1
    19    6   22 1
    20    7   23 1
    21    7   24 1
    22    8   15 1
    23    9   25 1
    24   11   15 2
    25   12   15 2
