@<TRIPOS>MOLECULE
*****
   39    41     0     0     0
SMALL
NO_CHARGES

@<TRIPOS>ATOM
      1 C1          1.7617    1.8292   -0.0461 C.ar      1 <0>         0.0000
      2 C2          2.8677    2.4258    2.4655 C.ar      1 <0>         0.0000
      3 C3          1.3836    1.0469    1.0660 C.ar      1 <0>         0.0000
      4 C4          2.6822    2.8626    0.0837 C.ar      1 <0>         0.0000
      5 C5          3.2351    3.1606    1.3383 C.ar      1 <0>         0.0000
      6 C6          1.9497    1.3816    2.3130 C.ar      1 <0>         0.0000
      7 C7          0.3825   -1.0217    0.0157 C.2       1 <0>         0.0000
      8 C8          0.3951   -0.0417    0.9387 C.2       1 <0>         0.0000
      9 C9          3.5616    5.6836    1.7422 C.2       1 <0>         0.0000
     10 C10         3.2110    3.8183   -0.9656 C.3       1 <0>         0.0000
     11 C11         1.4275   -1.2446   -1.0512 C.3       1 <0>         0.0000
     12 C12        -0.7531   -2.0156   -0.0515 C.3       1 <0>         0.0000
     13 C13         4.4573    4.4316   -0.2825 C.3       1 <0>         0.0000
     14 C14         0.7894   -1.2071   -2.4548 C.3       1 <0>         0.0000
     15 C15        -1.4095   -1.9855   -1.4479 C.3       1 <0>         0.0000
     16 C16        -0.3740   -2.2040   -2.5602 C.3       1 <0>         0.0000
     17 C17         4.1620    4.3545    1.2453 C.3       1 <0>         0.0000
     18 O1          4.1918    6.7167    1.7303 O.2       1 <0>         0.0000
     19 O2          2.2779    5.6631    2.1855 O.3       1 <0>         0.0000
     20 Cl1         1.5247    0.4486    3.7423 Cl        1 <0>         0.0000
     21 H1          1.3015    1.6195   -1.0074 H         1 <0>         0.0000
     22 H2          3.2848    2.6409    3.4453 H         1 <0>         0.0000
     23 H3         -0.3901   -0.0473    1.6933 H         1 <0>         0.0000
     24 H4          3.4519    3.3223   -1.9105 H         1 <0>         0.0000
     25 H5          2.4625    4.5899   -1.1882 H         1 <0>         0.0000
     26 H6          2.2514   -0.5327   -0.9744 H         1 <0>         0.0000
     27 H7          1.8579   -2.2449   -0.8966 H         1 <0>         0.0000
     28 H8         -0.3607   -3.0269    0.1297 H         1 <0>         0.0000
     29 H9         -1.4956   -1.8115    0.7263 H         1 <0>         0.0000
     30 H10         5.3321    3.8103   -0.4960 H         1 <0>         0.0000
     31 H11         4.6801    5.4504   -0.6038 H         1 <0>         0.0000
     32 H12         0.4196   -0.1926   -2.6555 H         1 <0>         0.0000
     33 H13         1.5489   -1.4256   -3.2145 H         1 <0>         0.0000
     34 H14        -2.1953   -2.7476   -1.5047 H         1 <0>         0.0000
     35 H15        -1.8974   -1.0123   -1.5886 H         1 <0>         0.0000
     36 H16         0.0232   -3.2258   -2.4870 H         1 <0>         0.0000
     37 H17        -0.8529   -2.1236   -3.5429 H         1 <0>         0.0000
     38 H18         5.0848    4.2259    1.8178 H         1 <0>         0.0000
     39 H19         1.9338    4.7512    2.1335 H         1 <0>         0.0000
@<TRIPOS>BOND
     1    1    3 ar
     2    1    4 ar
     3    1   21 1
     4    2    5 ar
     5    2    6 ar
     6    2   22 1
     7    3    6 ar
     8    3    8 1
     9    4    5 ar
    10    4   10 1
    11    5   17 1
    12    6   20 1
    13    7    8 2
    14    7   12 1
    15    7   11 1
    16    8   23 1
    17    9   17 1
    18    9   18 2
    19    9   19 1
    20   10   13 1
    21   10   24 1
    22   10   25 1
    23   11   14 1
    24   11   26 1
    25   11   27 1
    26   12   15 1
    27   12   28 1
    28   12   29 1
    29   13   17 1
    30   13   30 1
    31   13   31 1
    32   14   16 1
    33   14   32 1
    34   14   33 1
    35   15   16 1
    36   15   34 1
    37   15   35 1
    38   16   36 1
    39   16   37 1
    40   17   38 1
    41   19   39 1
