@<TRIPOS>MOLECULE
*****
   16    16     0     0     0
SMALL
NO_CHARGES

@<TRIPOS>ATOM
      1 C1          1.7063   -1.2475   -0.1751 C.ar      1 <0>         0.0000
      2 C2          0.7620   -0.4883    0.5262 C.ar      1 <0>         0.0000
      3 C3          2.7850   -1.8135    0.5031 C.ar      1 <0>         0.0000
      4 C4          0.8935   -0.2988    1.9036 C.ar      1 <0>         0.0000
      5 C5          2.9472   -1.6209    1.8844 C.ar      1 <0>         0.0000
      6 C6          1.9809   -0.8667    2.5592 C.ar      1 <0>         0.0000
      7 C7          4.1083   -2.1906    2.6015 C.2       1 <0>         0.0000
      8 N1          4.9933   -1.5811    3.2926 N.2       1 <0>         0.0000
      9 O1          4.7908   -0.1943    3.2965 O.3       1 <0>         0.0000
     10 F1          2.0801   -0.7080    3.8964 F         1 <0>         0.0000
     11 Cl1         4.3291   -3.9295    2.4744 Cl        1 <0>         0.0000
     12 H1          1.6006   -1.3986   -1.2453 H         1 <0>         0.0000
     13 H2         -0.0831   -0.0489    0.0035 H         1 <0>         0.0000
     14 H3          3.5174   -2.4093   -0.0337 H         1 <0>         0.0000
     15 H4          0.1686    0.2715    2.4762 H         1 <0>         0.0000
     16 H5          5.5004    0.1141    3.8842 H         1 <0>         0.0000
@<TRIPOS>BOND
     1    1    2 ar
     2    1    3 ar
     3    1   12 1
     4    2    4 ar
     5    2   13 1
     6    3    5 ar
     7    3   14 1
     8    4    6 ar
     9    4   15 1
    10    5    6 ar
    11    5    7 1
    12    6   10 1
    13    7    8 2
    14    7   11 1
    15    8    9 1
    16    9   16 1
