@<TRIPOS>MOLECULE
*****
   25    25     0     0     0
SMALL
NO_CHARGES

@<TRIPOS>ATOM
      1 C1          1.0499    1.7315    2.9868 C.2       1 <0>         0.0000
      2 C2          0.7381    0.6873    2.1888 C.2       1 <0>         0.0000
      3 C3          3.0686    0.4585    2.1907 C.2       1 <0>         0.0000
      4 C4         -0.8874   -1.2074    1.9116 C.2       1 <0>         0.0000
      5 C5         -2.3511   -2.8428    2.7790 C.3       1 <0>         0.0000
      6 C6          5.9498   -0.8514    0.1110 C.3       1 <0>         0.0000
      7 C7         -0.6316    0.2818    1.7262 C.3       1 <0>         0.0000
      8 N1          4.2852    0.0398    1.9763 N.2       1 <0>         0.0000
      9 N2          1.8611   -0.0128    1.7519 N.pl3     1 <0>         0.0000
     10 O1         -0.1486   -2.0744    1.4857 O.2       1 <0>         0.0000
     11 O2          4.9794   -2.4286    2.0092 O.2       1 <0>         0.0000
     12 O3          3.4072   -1.6341    0.1891 O.2       1 <0>         0.0000
     13 O4         -2.0301   -1.4435    2.5803 O.3       1 <0>         0.0000
     14 S1          2.7876    1.8748    3.2157 S.3       1 <0>         0.0000
     15 S2          4.5414   -1.3607    1.1052 S.o2      1 <0>         0.0000
     16 H1          0.3663    2.4304    3.4478 H         1 <0>         0.0000
     17 H2         -3.2925   -2.8466    3.3267 H         1 <0>         0.0000
     18 H3         -1.5621   -3.3295    3.3556 H         1 <0>         0.0000
     19 H4         -2.4584   -3.3443    1.8151 H         1 <0>         0.0000
     20 H5          6.2501   -1.7245   -0.4709 H         1 <0>         0.0000
     21 H6          5.6411   -0.0343   -0.5411 H         1 <0>         0.0000
     22 H7          6.7468   -0.5417    0.7868 H         1 <0>         0.0000
     23 H8         -0.7299    0.4806    0.6512 H         1 <0>         0.0000
     24 H9         -1.3849    0.8700    2.2497 H         1 <0>         0.0000
     25 H10         1.8184   -0.8452    1.1576 H         1 <0>         0.0000
@<TRIPOS>BOND
     1    1    2 2
     2    1   14 1
     3    1   16 1
     4    2    7 1
     5    2    9 1
     6    3    8 2
     7    3    9 1
     8    3   14 1
     9    4    7 1
    10    4   10 2
    11    4   13 1
    12    5   13 1
    13    5   17 1
    14    5   18 1
    15    5   19 1
    16    6   15 1
    17    6   20 1
    18    6   21 1
    19    6   22 1
    20    7   23 1
    21    7   24 1
    22    8   15 1
    23    9   25 1
    24   11   15 2
    25   12   15 2
