@<TRIPOS>MOLECULE
*****
   51    54     0     0     0
SMALL
NO_CHARGES

@<TRIPOS>ATOM
      1 C1         -6.2077   -6.6020  -12.5145 C.ar      1 <0>         0.0000
      2 C2         -6.2635   -5.1902  -12.6613 C.ar      1 <0>         0.0000
      3 C3         -5.4261   -7.1671  -11.5290 C.ar      1 <0>         0.0000
      4 C4         -3.8458   -6.8591   -9.6171 C.ar      1 <0>         0.0000
      5 C5         -0.1905   -1.3948   -5.4270 C.ar      1 <0>         0.0000
      6 C6          0.4233   -3.4837   -4.3974 C.ar      1 <0>         0.0000
      7 C7         -5.5398   -4.3672  -11.8238 C.ar      1 <0>         0.0000
      8 C8         -0.9752   -2.0773   -6.3654 C.ar      1 <0>         0.0000
      9 C9         -0.3520   -4.1721   -5.3221 C.ar      1 <0>         0.0000
     10 C10        -3.1441   -5.9935   -8.8081 C.ar      1 <0>         0.0000
     11 C11        -4.6693   -6.3444  -10.6512 C.ar      1 <0>         0.0000
     12 C12         0.5109   -2.0810   -4.4352 C.ar      1 <0>         0.0000
     13 C13        -4.7255   -4.9215  -10.7989 C.ar      1 <0>         0.0000
     14 C14        -1.0597   -3.4728   -6.3128 C.ar      1 <0>         0.0000
     15 C15        -3.2698   -4.5969   -9.0382 C.ar      1 <0>         0.0000
     16 C16         2.7523   -1.9175   -3.3398 C.2       1 <0>         0.0000
     17 C17        -0.9825   -0.3777   -0.4931 C.3       1 <0>         0.0000
     18 C18         0.3135   -0.7270    0.2698 C.3       1 <0>         0.0000
     19 C19        -0.7999   -0.9645   -1.9213 C.3       1 <0>         0.0000
     20 C20         1.3869   -0.7534   -0.8274 C.3       1 <0>         0.0000
     21 C21         0.6651   -1.4711   -1.9859 C.3       1 <0>         0.0000
     22 C22        -2.5288   -3.5784   -8.1994 C.3       1 <0>         0.0000
     23 C23         1.3155   -1.3297   -3.3760 C.3       1 <0>         0.0000
     24 N1         -4.0246   -4.0763   -9.9885 N.ar      1 <0>         0.0000
     25 O1          3.0350   -2.9540   -2.7789 O.2       1 <0>         0.0000
     26 O2          3.6693   -1.1868   -4.0047 O.3       1 <0>         0.0000
     27 O3          1.4015    0.0504   -3.7875 O.3       1 <0>         0.0000
     28 O4         -1.7956   -4.2416   -7.1748 O.3       1 <0>         0.0000
     29 H1         -6.7848   -7.2346  -13.1838 H         1 <0>         0.0000
     30 H2         -6.8837   -4.7587  -13.4427 H         1 <0>         0.0000
     31 H3         -5.3794   -8.2477  -11.4121 H         1 <0>         0.0000
     32 H4         -3.7756   -7.9351   -9.4721 H         1 <0>         0.0000
     33 H5         -0.1307   -0.3134   -5.4703 H         1 <0>         0.0000
     34 H6          0.9778   -4.0407   -3.6487 H         1 <0>         0.0000
     35 H7         -5.5698   -3.2859  -11.9209 H         1 <0>         0.0000
     36 H8         -1.5061   -1.5090   -7.1205 H         1 <0>         0.0000
     37 H9         -0.4199   -5.2558   -5.2975 H         1 <0>         0.0000
     38 H10        -2.5052   -6.3475   -8.0080 H         1 <0>         0.0000
     39 H11        -1.8737   -0.7661    0.0079 H         1 <0>         0.0000
     40 H12        -1.0982    0.7106   -0.5451 H         1 <0>         0.0000
     41 H13         0.5394   -0.0225    1.0760 H         1 <0>         0.0000
     42 H14         0.2346   -1.7242    0.7187 H         1 <0>         0.0000
     43 H15        -1.4975   -1.7794   -2.1281 H         1 <0>         0.0000
     44 H16        -0.9819   -0.2015   -2.6835 H         1 <0>         0.0000
     45 H17         1.6505    0.2848   -1.0873 H         1 <0>         0.0000
     46 H18         2.3107   -1.2582   -0.5338 H         1 <0>         0.0000
     47 H19         0.6859   -2.5391   -1.7559 H         1 <0>         0.0000
     48 H20        -1.8522   -3.0059   -8.8469 H         1 <0>         0.0000
     49 H21        -3.2539   -2.8789   -7.7650 H         1 <0>         0.0000
     50 H22         3.1982   -0.3943   -4.3412 H         1 <0>         0.0000
     51 H23         1.4725    0.5956   -2.9869 H         1 <0>         0.0000
@<TRIPOS>BOND
     1    1    2 ar
     2    1    3 ar
     3    1   29 1
     4    2    7 ar
     5    2   30 1
     6    3   11 ar
     7    3   31 1
     8    4   10 ar
     9    4   11 ar
    10    4   32 1
    11    5    8 ar
    12    5   12 ar
    13    5   33 1
    14    6    9 ar
    15    6   12 ar
    16    6   34 1
    17    7   13 ar
    18    7   35 1
    19    8   14 ar
    20    8   36 1
    21    9   14 ar
    22    9   37 1
    23   10   15 ar
    24   10   38 1
    25   11   13 ar
    26   12   23 1
    27   13   24 ar
    28   14   28 1
    29   15   22 1
    30   15   24 ar
    31   16   23 1
    32   16   25 2
    33   16   26 1
    34   17   18 1
    35   17   19 1
    36   17   39 1
    37   17   40 1
    38   18   20 1
    39   18   41 1
    40   18   42 1
    41   19   21 1
    42   19   43 1
    43   19   44 1
    44   20   21 1
    45   20   45 1
    46   20   46 1
    47   21   23 1
    48   21   47 1
    49   22   28 1
    50   22   48 1
    51   22   49 1
    52   23   27 1
    53   26   50 1
    54   27   51 1
