@<TRIPOS>MOLECULE
*****
   46    47     0     0     0
SMALL
NO_CHARGES

@<TRIPOS>ATOM
      1 C1         -0.4865   -1.8575    1.9931 C.ar      1 <0>         0.0000
      2 C2         -1.0183   -1.5828    3.2477 C.ar      1 <0>         0.0000
      3 C3         -1.3020   -2.6035    1.1061 C.ar      1 <0>         0.0000
      4 C4         -2.9263   -2.7289    2.7205 C.ar      1 <0>         0.0000
      5 C5         -1.6999   -3.7344   -1.0657 C.3       1 <0>         0.0000
      6 C6          0.3559   -2.4734   -0.7482 C.3       1 <0>         0.0000
      7 C7         -0.7166   -4.0987   -2.1942 C.3       1 <0>         0.0000
      8 C8          0.1979   -2.8249   -2.2386 C.3       1 <0>         0.0000
      9 C9          0.1117   -5.3278   -1.7742 C.3       1 <0>         0.0000
     10 C10        -1.4387   -4.4036   -3.5110 C.3       1 <0>         0.0000
     11 C11        -0.4368   -1.6518   -2.9955 C.3       1 <0>         0.0000
     12 C12        -0.9263    0.6083    4.4998 C.3       1 <0>         0.0000
     13 C13        -4.7809   -2.7239    4.3264 C.3       1 <0>         0.0000
     14 C14        -5.0445   -3.8035    2.1171 C.3       1 <0>         0.0000
     15 C15        -0.2610   -0.7574    4.2611 C.3       1 <0>         0.0000
     16 N1         -2.2379   -2.0058    3.6268 N.ar      1 <0>         0.0000
     17 N2         -2.5234   -3.0314    1.4702 N.ar      1 <0>         0.0000
     18 N3         -0.8953   -2.9203   -0.1536 N.pl3     1 <0>         0.0000
     19 N4         -4.1536   -3.2220    3.1101 N.pl3     1 <0>         0.0000
     20 O1          1.5088   -3.0768   -2.7566 O.3       1 <0>         0.0000
     21 H1          0.5041   -1.5165    1.7180 H         1 <0>         0.0000
     22 H2         -2.5646   -3.1670   -1.4360 H         1 <0>         0.0000
     23 H3         -2.0915   -4.6148   -0.5502 H         1 <0>         0.0000
     24 H4          1.2262   -2.9956   -0.3307 H         1 <0>         0.0000
     25 H5          0.5074   -1.3984   -0.6056 H         1 <0>         0.0000
     26 H6          0.8946   -5.5466   -2.5045 H         1 <0>         0.0000
     27 H7         -0.5418   -6.2027   -1.6927 H         1 <0>         0.0000
     28 H8          0.5956   -5.1826   -0.8044 H         1 <0>         0.0000
     29 H9         -0.7232   -4.5805   -4.3235 H         1 <0>         0.0000
     30 H10        -2.1099   -3.5966   -3.8173 H         1 <0>         0.0000
     31 H11        -2.0412   -5.3128   -3.4115 H         1 <0>         0.0000
     32 H12        -0.5649   -1.8818   -4.0587 H         1 <0>         0.0000
     33 H13         0.2119   -0.7749   -2.9133 H         1 <0>         0.0000
     34 H14        -1.4183   -1.3910   -2.5890 H         1 <0>         0.0000
     35 H15        -0.9433    1.2007    3.5785 H         1 <0>         0.0000
     36 H16        -0.3837    1.1780    5.2618 H         1 <0>         0.0000
     37 H17        -1.9582    0.4732    4.8353 H         1 <0>         0.0000
     38 H18        -5.4613   -3.4882    4.7150 H         1 <0>         0.0000
     39 H19        -5.3590   -1.8048    4.1430 H         1 <0>         0.0000
     40 H20        -4.0173   -2.5058    5.0702 H         1 <0>         0.0000
     41 H21        -5.7712   -4.4431    2.6271 H         1 <0>         0.0000
     42 H22        -4.4735   -4.4012    1.4083 H         1 <0>         0.0000
     43 H23        -5.5939   -3.0340    1.5525 H         1 <0>         0.0000
     44 H24        -0.2320   -1.3148    5.2041 H         1 <0>         0.0000
     45 H25         0.7728   -0.6197    3.9273 H         1 <0>         0.0000
     46 H26         1.4477   -3.1118   -3.7242 H         1 <0>         0.0000
@<TRIPOS>BOND
     1    1    2 ar
     2    1    3 ar
     3    1   21 1
     4    2   15 1
     5    2   16 ar
     6    3   17 ar
     7    3   18 1
     8    4   16 ar
     9    4   17 ar
    10    4   19 1
    11    5    7 1
    12    5   18 1
    13    5   22 1
    14    5   23 1
    15    6    8 1
    16    6   18 1
    17    6   24 1
    18    6   25 1
    19    7    8 1
    20    7    9 1
    21    7   10 1
    22    8   11 1
    23    8   20 1
    24    9   26 1
    25    9   27 1
    26    9   28 1
    27   10   29 1
    28   10   30 1
    29   10   31 1
    30   11   32 1
    31   11   33 1
    32   11   34 1
    33   12   15 1
    34   12   35 1
    35   12   36 1
    36   12   37 1
    37   13   19 1
    38   13   38 1
    39   13   39 1
    40   13   40 1
    41   14   19 1
    42   14   41 1
    43   14   42 1
    44   14   43 1
    45   15   44 1
    46   15   45 1
    47   20   46 1
