@<TRIPOS>MOLECULE
*****
   33    34     0     0     0
SMALL
NO_CHARGES

@<TRIPOS>ATOM
      1 C1          0.3715   -3.1732   -2.2889 C.ar      1 <0>         0.0000
      2 C2          0.1585   -1.8109   -2.0545 C.ar      1 <0>         0.0000
      3 C3          0.7077   -2.1684    0.2791 C.ar      1 <0>         0.0000
      4 C4          0.7579   -4.0476   -1.2645 C.ar      1 <0>         0.0000
      5 C5          0.9206   -3.5193    0.0421 C.ar      1 <0>         0.0000
      6 C6          0.3296   -1.3026   -0.7621 C.ar      1 <0>         0.0000
      7 C7          1.7117   -6.1967   -0.5810 C.2       1 <0>         0.0000
      8 C8          1.0151   -5.4873   -1.4972 C.2       1 <0>         0.0000
      9 C9          1.4353   -5.7028   -3.9964 C.2       1 <0>         0.0000
     10 C10         1.2693   -4.4671    1.1677 C.3       1 <0>         0.0000
     11 C11         2.2235   -5.5664    0.6913 C.3       1 <0>         0.0000
     12 C12         0.4295   -7.6347   -2.8092 C.3       1 <0>         0.0000
     13 C13        -0.2194    0.9266   -1.4325 C.3       1 <0>         0.0000
     14 C14         0.5418   -6.0973   -2.8067 C.3       1 <0>         0.0000
     15 O1          1.0163   -5.5624   -5.1241 O.2       1 <0>         0.0000
     16 O2          2.7599   -5.5785   -3.7260 O.3       1 <0>         0.0000
     17 O3          0.1549    0.0064   -0.4102 O.3       1 <0>         0.0000
     18 H1          0.2405   -3.5342   -3.3039 H         1 <0>         0.0000
     19 H2         -0.1301   -1.1711   -2.8804 H         1 <0>         0.0000
     20 H3          0.8270   -1.7532    1.2766 H         1 <0>         0.0000
     21 H4          1.9236   -7.2493   -0.7468 H         1 <0>         0.0000
     22 H5          1.6959   -3.9200    2.0137 H         1 <0>         0.0000
     23 H6          0.3421   -4.9380    1.5247 H         1 <0>         0.0000
     24 H7          2.3444   -6.3272    1.4691 H         1 <0>         0.0000
     25 H8          3.2236   -5.1416    0.5142 H         1 <0>         0.0000
     26 H9          1.4024   -8.1221   -2.6974 H         1 <0>         0.0000
     27 H10        -0.0002   -7.9662   -3.7578 H         1 <0>         0.0000
     28 H11        -0.2190   -7.9680   -1.9944 H         1 <0>         0.0000
     29 H12        -0.2981    1.8986   -0.9442 H         1 <0>         0.0000
     30 H13        -1.1882    0.6611   -1.8728 H         1 <0>         0.0000
     31 H14         0.5403    0.9759   -2.2220 H         1 <0>         0.0000
     32 H15        -0.4453   -5.6954   -3.0473 H         1 <0>         0.0000
     33 H16         2.8845   -5.6492   -2.7587 H         1 <0>         0.0000
@<TRIPOS>BOND
     1    1    2 ar
     2    1    4 ar
     3    1   18 1
     4    2    6 ar
     5    2   19 1
     6    3    5 ar
     7    3    6 ar
     8    3   20 1
     9    4    5 ar
    10    4    8 1
    11    5   10 1
    12    6   17 1
    13    7    8 2
    14    7   11 1
    15    7   21 1
    16    8   14 1
    17    9   14 1
    18    9   15 2
    19    9   16 1
    20   10   11 1
    21   10   22 1
    22   10   23 1
    23   11   24 1
    24   11   25 1
    25   12   14 1
    26   12   26 1
    27   12   27 1
    28   12   28 1
    29   13   17 1
    30   13   29 1
    31   13   30 1
    32   13   31 1
    33   14   32 1
    34   16   33 1
