@<TRIPOS>MOLECULE
*****
   38    40     0     0     0
SMALL
NO_CHARGES

@<TRIPOS>ATOM
      1 C1          1.1672    0.3037   -0.0128 C.ar      1 <0>         0.0000
      2 C2         -1.0924   -0.9706   -1.0938 C.ar      1 <0>         0.0000
      3 C3         -0.0848    0.4954    0.6164 C.ar      1 <0>         0.0000
      4 C4          1.2816   -0.4720   -1.1585 C.ar      1 <0>         0.0000
      5 C5          0.1515   -1.0969   -1.7158 C.ar      1 <0>         0.0000
      6 C6         -1.1844   -0.1772    0.0501 C.ar      1 <0>         0.0000
      7 C7          0.3127    2.5259    2.0785 C.2       1 <0>         0.0000
      8 C8         -0.2177    1.3105    1.8379 C.2       1 <0>         0.0000
      9 C9          0.4669   -3.4628   -2.5511 C.2       1 <0>         0.0000
     10 C10         2.5164   -0.8412   -1.9553 C.3       1 <0>         0.0000
     11 C11         1.0533    3.3667    1.0622 C.3       1 <0>         0.0000
     12 C12         0.1270    3.2022    3.4198 C.3       1 <0>         0.0000
     13 C13         1.9273   -1.3808   -3.2833 C.3       1 <0>         0.0000
     14 C14         0.4139    4.7643    0.9294 C.3       1 <0>         0.0000
     15 C15        -0.5122    4.5964    3.2765 C.3       1 <0>         0.0000
     16 C16         0.2767    5.4647    2.2873 C.3       1 <0>         0.0000
     17 C17         0.5197   -1.9101   -2.9232 C.3       1 <0>         0.0000
     18 O1          1.5785   -4.0438   -2.4638 O.co2     1 <0>         0.0000
     19 O2         -0.7016   -3.8984   -2.3910 O.co2     1 <0>         0.0000
     20 Cl1        -2.7884    0.0067    0.8000 Cl        1 <0>         0.0000
     21 H1          2.0475    0.7569    0.4376 H         1 <0>         0.0000
     22 H2         -1.9557   -1.4976   -1.4853 H         1 <0>         0.0000
     23 H3         -0.8211    0.8685    2.6308 H         1 <0>         0.0000
     24 H4          3.2076   -0.0001   -2.0912 H         1 <0>         0.0000
     25 H5          3.0580   -1.6430   -1.4396 H         1 <0>         0.0000
     26 H6          2.1013    3.4897    1.3779 H         1 <0>         0.0000
     27 H7          1.0697    2.8742    0.0885 H         1 <0>         0.0000
     28 H8         -0.4755    2.5718    4.0825 H         1 <0>         0.0000
     29 H9          1.1102    3.3231    3.9025 H         1 <0>         0.0000
     30 H10         1.8478   -0.5582   -4.0081 H         1 <0>         0.0000
     31 H11         2.5392   -2.1787   -3.7077 H         1 <0>         0.0000
     32 H12         1.0083    5.3782    0.2411 H         1 <0>         0.0000
     33 H13        -0.5809    4.6526    0.4788 H         1 <0>         0.0000
     34 H14        -1.5418    4.4790    2.9140 H         1 <0>         0.0000
     35 H15        -0.5698    5.0874    4.2566 H         1 <0>         0.0000
     36 H16        -0.2084    6.4416    2.1655 H         1 <0>         0.0000
     37 H17         1.2786    5.6594    2.6975 H         1 <0>         0.0000
     38 H18        -0.2024   -1.7738   -3.7345 H         1 <0>         0.0000
@<TRIPOS>BOND
     1    1    3 ar
     2    1    4 ar
     3    1   21 1
     4    2    5 ar
     5    2    6 ar
     6    2   22 1
     7    3    6 ar
     8    3    8 1
     9    4    5 ar
    10    4   10 1
    11    5   17 1
    12    6   20 1
    13    7    8 2
    14    7   12 1
    15    7   11 1
    16    8   23 1
    17    9   17 1
    18    9   18 1
    19    9   19 2
    20   10   13 1
    21   10   24 1
    22   10   25 1
    23   11   14 1
    24   11   26 1
    25   11   27 1
    26   12   15 1
    27   12   28 1
    28   12   29 1
    29   13   17 1
    30   13   30 1
    31   13   31 1
    32   14   16 1
    33   14   32 1
    34   14   33 1
    35   15   16 1
    36   15   34 1
    37   15   35 1
    38   16   36 1
    39   16   37 1
    40   17   38 1
