@<TRIPOS>MOLECULE
*****
   21    22     0     0     0
SMALL
NO_CHARGES

@<TRIPOS>ATOM
      1 C1         -3.5755   -2.5136   -0.2265 C.ar      1 <0>         0.0000
      2 C2         -2.1727   -0.8457   -1.2639 C.ar      1 <0>         0.0000
      3 C3         -2.6100   -2.5892    0.7832 C.ar      1 <0>         0.0000
      4 C4         -3.3324   -1.6189   -1.2658 C.ar      1 <0>         0.0000
      5 C5         -1.2770   -0.9884   -0.1945 C.ar      1 <0>         0.0000
      6 C6          0.0537    1.1939   -0.7031 C.3       1 <0>         0.0000
      7 C7          0.0268    0.9978    0.8002 C.3       1 <0>         0.0000
      8 C8          0.0016   -0.2026   -0.1241 C.3       1 <0>         0.0000
      9 C9          1.2527   -1.0652   -0.1995 C.3       1 <0>         0.0000
     10 N1         -1.4927   -1.8570    0.8117 N.ar      1 <0>         0.0000
     11 Cl1        -4.4804   -1.4673   -2.5808 Cl        1 <0>         0.0000
     12 H1         -4.4695   -3.1274   -0.1997 H         1 <0>         0.0000
     13 H2         -1.9643   -0.1580   -2.0754 H         1 <0>         0.0000
     14 H3         -2.7542   -3.2799    1.6130 H         1 <0>         0.0000
     15 H4         -0.8361    1.6106   -1.1654 H         1 <0>         0.0000
     16 H5          0.9848    1.5093   -1.1656 H         1 <0>         0.0000
     17 H6          0.9376    1.1745    1.3658 H         1 <0>         0.0000
     18 H7         -0.8882    1.2536    1.3260 H         1 <0>         0.0000
     19 H8          2.1528   -0.4524   -0.0856 H         1 <0>         0.0000
     20 H9          1.3144   -1.5823   -1.1640 H         1 <0>         0.0000
     21 H10         1.2427   -1.8172    0.5948 H         1 <0>         0.0000
@<TRIPOS>BOND
     1    1    3 ar
     2    1    4 ar
     3    1   12 1
     4    2    4 ar
     5    2    5 ar
     6    2   13 1
     7    3   10 ar
     8    3   14 1
     9    4   11 1
    10    5    8 1
    11    5   10 ar
    12    6    7 1
    13    6    8 1
    14    6   15 1
    15    6   16 1
    16    7    8 1
    17    7   17 1
    18    7   18 1
    19    8    9 1
    20    9   19 1
    21    9   20 1
    22    9   21 1
