@<TRIPOS>MOLECULE
*****
   16    16     0     0     0
SMALL
NO_CHARGES

@<TRIPOS>ATOM
      1 C1          2.2606   -0.7164   -0.8886 C.2       1 <0>         0.0000
      2 C2          0.9687   -0.6269   -0.4035 C.2       1 <0>         0.0000
      3 C3          1.4548   -2.7102   -0.9813 C.2       1 <0>         0.0000
      4 C4          1.2454   -4.1345   -1.1802 C.2       1 <0>         0.0000
      5 C5         -0.8840   -2.3040   -0.0558 C.3       1 <0>         0.0000
      6 N1          2.5528   -2.0046   -1.2428 N.2       1 <0>         0.0000
      7 N2          2.1686   -4.8914   -1.6579 N.2       1 <0>         0.0000
      8 N3          0.4565   -1.9044   -0.4644 N.pl3     1 <0>         0.0000
      9 O1          1.7055   -6.2171   -1.7471 O.3       1 <0>         0.0000
     10 H1          2.9853    0.0806   -0.9974 H         1 <0>         0.0000
     11 H2          0.3853    0.2040   -0.0320 H         1 <0>         0.0000
     12 H3          0.2760   -4.5621   -0.9140 H         1 <0>         0.0000
     13 H4         -1.4406   -2.7233   -0.8987 H         1 <0>         0.0000
     14 H5         -0.8429   -3.0410    0.7512 H         1 <0>         0.0000
     15 H6         -1.4179   -1.4249    0.3068 H         1 <0>         0.0000
     16 H7          2.4744   -6.6842   -2.1135 H         1 <0>         0.0000
@<TRIPOS>BOND
     1    1    2 2
     2    1    6 1
     3    1   10 1
     4    2    8 1
     5    2   11 1
     6    3    4 1
     7    3    6 2
     8    3    8 1
     9    4    7 2
    10    4   12 1
    11    5    8 1
    12    5   13 1
    13    5   14 1
    14    5   15 1
    15    7    9 1
    16    9   16 1
