@<TRIPOS>MOLECULE
*****
   51    54     0     0     0
SMALL
NO_CHARGES

@<TRIPOS>ATOM
      1 C1         -7.8317   -6.3939  -11.8272 C.ar      1 <0>         0.0000
      2 C2         -7.7837   -5.0105  -12.1464 C.ar      1 <0>         0.0000
      3 C3         -6.9863   -6.9156  -10.8709 C.ar      1 <0>         0.0000
      4 C4         -5.1623   -6.5464   -9.2023 C.ar      1 <0>         0.0000
      5 C5         -0.5631   -1.0253   -6.1818 C.ar      1 <0>         0.0000
      6 C6         -0.0256   -3.0219   -4.9502 C.ar      1 <0>         0.0000
      7 C7         -6.8945   -4.1721  -11.5070 C.ar      1 <0>         0.0000
      8 C8         -1.5105   -1.7301   -6.9334 C.ar      1 <0>         0.0000
      9 C9         -0.9625   -3.7335   -5.6900 C.ar      1 <0>         0.0000
     10 C10        -4.2943   -5.6672   -8.5944 C.ar      1 <0>         0.0000
     11 C11        -6.0594   -6.0760  -10.1954 C.ar      1 <0>         0.0000
     12 C12         0.1844   -1.6504   -5.1803 C.ar      1 <0>         0.0000
     13 C13        -6.0108   -4.6817  -10.5170 C.ar      1 <0>         0.0000
     14 C14        -1.7160   -3.0922   -6.6848 C.ar      1 <0>         0.0000
     15 C15        -4.3265   -4.3018   -8.9863 C.ar      1 <0>         0.0000
     16 C16         2.4672   -1.6797   -4.1419 C.2       1 <0>         0.0000
     17 C17        -0.7015   -0.6464   -0.9726 C.3       1 <0>         0.0000
     18 C18        -1.3691    0.5005   -1.7685 C.3       1 <0>         0.0000
     19 C19         0.0332   -1.4733   -2.0369 C.3       1 <0>         0.0000
     20 C20        -0.5525    0.6334   -3.0860 C.3       1 <0>         0.0000
     21 C21         0.6063   -0.3903   -2.9678 C.3       1 <0>         0.0000
     22 C22        -3.4014   -3.2721   -8.3747 C.3       1 <0>         0.0000
     23 C23         1.1718   -0.8441   -4.3387 C.3       1 <0>         0.0000
     24 N1         -5.1452   -3.8224   -9.9048 N.ar      1 <0>         0.0000
     25 O1          2.5766   -2.5814   -3.3391 O.2       1 <0>         0.0000
     26 O2          3.4782   -1.3316   -4.9621 O.3       1 <0>         0.0000
     27 O3          1.5318    0.3310   -5.1106 O.3       1 <0>         0.0000
     28 O4         -2.6135   -3.8788   -7.3552 O.3       1 <0>         0.0000
     29 H1         -8.5388   -7.0392  -12.3416 H         1 <0>         0.0000
     30 H2         -8.4560   -4.6132  -12.9024 H         1 <0>         0.0000
     31 H3         -7.0186   -7.9743  -10.6227 H         1 <0>         0.0000
     32 H4         -5.1678   -7.5995   -8.9293 H         1 <0>         0.0000
     33 H5         -0.3988    0.0259   -6.3888 H         1 <0>         0.0000
     34 H6          0.5539   -3.5390   -4.1932 H         1 <0>         0.0000
     35 H7         -6.8432   -3.1120  -11.7376 H         1 <0>         0.0000
     36 H8         -2.0681   -1.2070   -7.7017 H         1 <0>         0.0000
     37 H9         -1.1227   -4.7931   -5.5136 H         1 <0>         0.0000
     38 H10        -3.5947   -5.9877   -7.8318 H         1 <0>         0.0000
     39 H11         0.0229   -0.2409   -0.2562 H         1 <0>         0.0000
     40 H12        -1.4216   -1.2403   -0.4019 H         1 <0>         0.0000
     41 H13        -2.4103    0.2536   -1.9972 H         1 <0>         0.0000
     42 H14        -1.3836    1.4344   -1.1990 H         1 <0>         0.0000
     43 H15         0.8024   -2.1331   -1.6351 H         1 <0>         0.0000
     44 H16        -0.6859   -2.0875   -2.5888 H         1 <0>         0.0000
     45 H17        -1.1769    0.3841   -3.9479 H         1 <0>         0.0000
     46 H18        -0.1923    1.6557   -3.2409 H         1 <0>         0.0000
     47 H19         1.4432    0.0835   -2.4309 H         1 <0>         0.0000
     48 H20        -2.7580   -2.8572   -9.1613 H         1 <0>         0.0000
     49 H21        -4.0028   -2.4526   -7.9620 H         1 <0>         0.0000
     50 H22         3.1547   -0.5674   -5.4877 H         1 <0>         0.0000
     51 H23         1.6852    1.0622   -4.4908 H         1 <0>         0.0000
@<TRIPOS>BOND
     1    1    2 ar
     2    1    3 ar
     3    1   29 1
     4    2    7 ar
     5    2   30 1
     6    3   11 ar
     7    3   31 1
     8    4   10 ar
     9    4   11 ar
    10    4   32 1
    11    5    8 ar
    12    5   12 ar
    13    5   33 1
    14    6    9 ar
    15    6   12 ar
    16    6   34 1
    17    7   13 ar
    18    7   35 1
    19    8   14 ar
    20    8   36 1
    21    9   14 ar
    22    9   37 1
    23   10   15 ar
    24   10   38 1
    25   11   13 ar
    26   12   23 1
    27   13   24 ar
    28   14   28 1
    29   15   22 1
    30   15   24 ar
    31   16   23 1
    32   16   25 2
    33   16   26 1
    34   17   18 1
    35   17   19 1
    36   17   39 1
    37   17   40 1
    38   18   20 1
    39   18   41 1
    40   18   42 1
    41   19   21 1
    42   19   43 1
    43   19   44 1
    44   20   21 1
    45   20   45 1
    46   20   46 1
    47   21   23 1
    48   21   47 1
    49   22   28 1
    50   22   48 1
    51   22   49 1
    52   23   27 1
    53   26   50 1
    54   27   51 1
