@<TRIPOS>MOLECULE
*****
   25    25     0     0     0
SMALL
NO_CHARGES

@<TRIPOS>ATOM
      1 C1          1.5578    1.0605    2.9054 C.2       1 <0>         0.0000
      2 C2          1.2269   -0.0253    2.1747 C.2       1 <0>         0.0000
      3 C3          3.5640   -0.2676    2.1648 C.2       1 <0>         0.0000
      4 C4         -1.3264    0.2065    2.2264 C.2       1 <0>         0.0000
      5 C5         -3.6910    0.1948    2.1957 C.3       1 <0>         0.0000
      6 C6          6.2552   -2.9311    1.8987 C.3       1 <0>         0.0000
      7 C7         -0.1073   -0.5558    1.7399 C.3       1 <0>         0.0000
      8 N1          4.7702   -0.7325    1.9640 N.2       1 <0>         0.0000
      9 N2          2.3505   -0.7484    1.7578 N.pl3     1 <0>         0.0000
     10 O1         -1.3346    1.2314    2.8781 O.2       1 <0>         0.0000
     11 O2          3.7637   -2.9132    0.9618 O.2       1 <0>         0.0000
     12 O3          5.5444   -1.6449   -0.3108 O.2       1 <0>         0.0000
     13 O4         -2.4435   -0.4297    1.8146 O.3       1 <0>         0.0000
     14 S1          3.3010    1.2051    3.0991 S.3       1 <0>         0.0000
     15 S2          4.9830   -2.0580    0.9792 S.o2      1 <0>         0.0000
     16 H1          0.8814    1.7853    3.3297 H         1 <0>         0.0000
     17 H2         -4.4705   -0.4431    1.7809 H         1 <0>         0.0000
     18 H3         -3.7521    1.2024    1.7791 H         1 <0>         0.0000
     19 H4         -3.7707    0.2465    3.2837 H         1 <0>         0.0000
     20 H5          6.5234   -3.8061    1.3042 H         1 <0>         0.0000
     21 H6          7.1076   -2.2613    2.0116 H         1 <0>         0.0000
     22 H7          5.8491   -3.2238    2.8668 H         1 <0>         0.0000
     23 H8         -0.2210   -1.5983    2.0611 H         1 <0>         0.0000
     24 H9         -0.1578   -0.5851    0.6441 H         1 <0>         0.0000
     25 H10         2.3307   -1.6602    1.2943 H         1 <0>         0.0000
@<TRIPOS>BOND
     1    1    2 2
     2    1   14 1
     3    1   16 1
     4    2    7 1
     5    2    9 1
     6    3    8 2
     7    3    9 1
     8    3   14 1
     9    4    7 1
    10    4   10 2
    11    4   13 1
    12    5   13 1
    13    5   17 1
    14    5   18 1
    15    5   19 1
    16    6   15 1
    17    6   20 1
    18    6   21 1
    19    6   22 1
    20    7   23 1
    21    7   24 1
    22    8   15 1
    23    9   25 1
    24   11   15 2
    25   12   15 2
