@<TRIPOS>MOLECULE
*****
   43    46     0     0     0
SMALL
NO_CHARGES

@<TRIPOS>ATOM
      1 C1          1.7960   -6.9473    3.8981 C.ar      1 <0>         0.0000
      2 C2          2.2940   -7.1802    5.1625 C.ar      1 <0>         0.0000
      3 C3          1.4538   -5.0178    5.9339 C.ar      1 <0>         0.0000
      4 C4         -0.2337   -3.4229    3.0083 C.ar      1 <0>         0.0000
      5 C5          0.9413   -4.7743    4.6337 C.ar      1 <0>         0.0000
      6 C6          1.1074   -5.7411    3.5937 C.ar      1 <0>         0.0000
      7 C7          0.2387   -3.5831    4.2942 C.ar      1 <0>         0.0000
      8 C8          2.1104   -6.2014    6.1622 C.ar      1 <0>         0.0000
      9 C9         -0.0015   -4.4440    2.0465 C.ar      1 <0>         0.0000
     10 C10         0.6039    0.5591   -1.6390 C.3       1 <0>         0.0000
     11 C11         0.1166   -0.8372   -3.5276 C.3       1 <0>         0.0000
     12 C12         0.1886   -3.2493   -1.5841 C.3       1 <0>         0.0000
     13 C13         0.6043   -2.0237    0.0804 C.3       1 <0>         0.0000
     14 C14        -0.1948    1.6810   -2.2953 C.3       1 <0>         0.0000
     15 C15        -0.6720    0.3146   -4.1427 C.3       1 <0>         0.0000
     16 C16         0.8003   -1.8345   -1.4429 C.3       1 <0>         0.0000
     17 C17        -0.4746   -4.2467    0.6212 C.3       1 <0>         0.0000
     18 N1          0.6384   -5.5659    2.3227 N.ar      1 <0>         0.0000
     19 N2          0.0783   -0.7415   -2.0650 N.3       1 <0>         0.0000
     20 N3          0.4929   -3.4816   -0.1539 N.3       1 <0>         0.0000
     21 O1         -0.1655    1.5789   -3.7176 O.3       1 <0>         0.0000
     22 O2          0.0695   -2.6606    5.2862 O.3       1 <0>         0.0000
     23 F1          2.6119   -6.4588    7.3985 F         1 <0>         0.0000
     24 H1          1.9174   -7.6742    3.1012 H         1 <0>         0.0000
     25 H2          2.8237   -8.0954    5.4095 H         1 <0>         0.0000
     26 H3          1.3306   -4.2892    6.7272 H         1 <0>         0.0000
     27 H4         -0.7839   -2.5287    2.7229 H         1 <0>         0.0000
     28 H5          1.6729    0.6697   -1.9026 H         1 <0>         0.0000
     29 H6          0.5178    0.6411   -0.5495 H         1 <0>         0.0000
     30 H7         -0.3302   -1.7889   -3.8361 H         1 <0>         0.0000
     31 H8          1.1554   -0.8120   -3.9077 H         1 <0>         0.0000
     32 H9         -0.8916   -3.1822   -1.7935 H         1 <0>         0.0000
     33 H10         0.6580   -3.9611   -2.2711 H         1 <0>         0.0000
     34 H11         1.4100   -1.7263    0.7590 H         1 <0>         0.0000
     35 H12        -0.3450   -1.5610    0.4005 H         1 <0>         0.0000
     36 H13        -1.2362    1.6473   -1.9394 H         1 <0>         0.0000
     37 H14         0.2328    2.6559   -2.0468 H         1 <0>         0.0000
     38 H15        -0.5903    0.3001   -5.2326 H         1 <0>         0.0000
     39 H16        -1.7330    0.2240   -3.8635 H         1 <0>         0.0000
     40 H17         1.8709   -1.8351   -1.7101 H         1 <0>         0.0000
     41 H18        -0.5749   -5.2321    0.1590 H         1 <0>         0.0000
     42 H19        -1.4695   -3.7597    0.6186 H         1 <0>         0.0000
     43 H20        -0.4235   -1.9008    4.9358 H         1 <0>         0.0000
@<TRIPOS>BOND
     1    1    2 ar
     2    1    6 ar
     3    1   24 1
     4    2    8 ar
     5    2   25 1
     6    3    5 ar
     7    3    8 ar
     8    3   26 1
     9    4    7 ar
    10    4    9 ar
    11    4   27 1
    12    5    6 ar
    13    5    7 ar
    14    6   18 ar
    15    7   22 1
    16    8   23 1
    17    9   17 1
    18    9   18 ar
    19   10   14 1
    20   10   19 1
    21   10   28 1
    22   10   29 1
    23   11   15 1
    24   11   19 1
    25   11   30 1
    26   11   31 1
    27   12   16 1
    28   12   20 1
    29   12   32 1
    30   12   33 1
    31   13   16 1
    32   13   20 1
    33   13   34 1
    34   13   35 1
    35   14   21 1
    36   14   36 1
    37   14   37 1
    38   15   21 1
    39   15   38 1
    40   15   39 1
    41   16   19 1
    42   16   40 1
    43   17   20 1
    44   17   41 1
    45   17   42 1
    46   22   43 1
