@<TRIPOS>MOLECULE
*****
   56    59     0     0     0
SMALL
NO_CHARGES

@<TRIPOS>ATOM
      1 C1          1.9783   -2.1932   -2.4128 C.ar      1 <0>         0.0000
      2 C2          0.3433   -2.4038   -4.1843 C.ar      1 <0>         0.0000
      3 C3         -0.0963    5.0471    4.2820 C.ar      1 <0>         0.0000
      4 C4         -0.6393    5.0408    2.9967 C.ar      1 <0>         0.0000
      5 C5          1.9469   -3.5735   -2.2088 C.ar      1 <0>         0.0000
      6 C6          0.2913   -3.7817   -3.9899 C.ar      1 <0>         0.0000
      7 C7          1.4610    5.8658    2.0796 C.ar      1 <0>         0.0000
      8 C8          1.1806   -1.5904   -3.4004 C.ar      1 <0>         0.0000
      9 C9          1.2270    5.4547    4.4725 C.ar      1 <0>         0.0000
     10 C10         1.9906    5.8596    3.3730 C.ar      1 <0>         0.0000
     11 C11         0.1338    5.4473    1.8943 C.ar      1 <0>         0.0000
     12 C12         1.0991   -4.3413   -3.0016 C.ar      1 <0>         0.0000
     13 C13         1.1852   -0.1144   -3.6796 C.2       1 <0>         0.0000
     14 C14         2.0297    5.5710    5.7527 C.3       1 <0>         0.0000
     15 C15         3.3745    6.2858    3.8203 C.3       1 <0>         0.0000
     16 C16         3.4884    5.6696    5.2377 C.3       1 <0>         0.0000
     17 C17         1.1190    0.8788   -1.3438 C.3       1 <0>         0.0000
     18 C18         2.0550    2.2446   -3.2432 C.3       1 <0>         0.0000
     19 C19        -0.1539    1.7186   -1.4480 C.3       1 <0>         0.0000
     20 C20         0.7621    3.0659   -3.2214 C.3       1 <0>         0.0000
     21 C21         1.8804    0.8205   -2.6914 C.3       1 <0>         0.0000
     22 C22        -0.6241    5.4432   -1.7005 C.3       1 <0>         0.0000
     23 C23        -1.0068    3.9613   -1.8117 C.3       1 <0>         0.0000
     24 C24         0.2573    5.7253   -0.4928 C.3       1 <0>         0.0000
     25 N1          0.1600    3.0797   -1.8830 N.3       1 <0>         0.0000
     26 O1          0.6263    0.3134   -4.6849 O.2       1 <0>         0.0000
     27 O2         -0.4974    5.3988    0.6797 O.3       1 <0>         0.0000
     28 F1          1.0588   -5.6810   -2.8061 F         1 <0>         0.0000
     29 H1          2.6405   -1.5956   -1.7958 H         1 <0>         0.0000
     30 H2         -0.2637   -1.9304   -4.9492 H         1 <0>         0.0000
     31 H3         -0.7066    4.7275    5.1242 H         1 <0>         0.0000
     32 H4         -1.6616    4.7196    2.8179 H         1 <0>         0.0000
     33 H5          2.5617   -4.0542   -1.4542 H         1 <0>         0.0000
     34 H6         -0.3540   -4.4212   -4.5843 H         1 <0>         0.0000
     35 H7          2.0722    6.1844    1.2419 H         1 <0>         0.0000
     36 H8          1.7470    6.4806    6.3007 H         1 <0>         0.0000
     37 H9          1.8804    4.7275    6.4350 H         1 <0>         0.0000
     38 H10         4.1690    5.9496    3.1457 H         1 <0>         0.0000
     39 H11         3.4332    7.3822    3.8641 H         1 <0>         0.0000
     40 H12         4.1379    6.2470    5.9020 H         1 <0>         0.0000
     41 H13         3.9089    4.6612    5.1569 H         1 <0>         0.0000
     42 H14         1.7760    1.3408   -0.5985 H         1 <0>         0.0000
     43 H15         0.8666   -0.1239   -0.9865 H         1 <0>         0.0000
     44 H16         2.4372    2.2066   -4.2675 H         1 <0>         0.0000
     45 H17         2.8022    2.7555   -2.6248 H         1 <0>         0.0000
     46 H18        -0.8763    1.2272   -2.1293 H         1 <0>         0.0000
     47 H19        -0.6253    1.7728   -0.4616 H         1 <0>         0.0000
     48 H20         0.9991    4.0944   -3.5106 H         1 <0>         0.0000
     49 H21         0.0568    2.6684   -3.9694 H         1 <0>         0.0000
     50 H22         2.8757    0.4001   -2.5014 H         1 <0>         0.0000
     51 H23        -0.0925    5.7810   -2.5972 H         1 <0>         0.0000
     52 H24        -1.5403    6.0408   -1.6328 H         1 <0>         0.0000
     53 H25        -1.5757    3.6940   -0.9171 H         1 <0>         0.0000
     54 H26        -1.6798    3.8175   -2.6771 H         1 <0>         0.0000
     55 H27         1.1573    5.1019   -0.5384 H         1 <0>         0.0000
     56 H28         0.5513    6.7833   -0.4611 H         1 <0>         0.0000
@<TRIPOS>BOND
     1    1    5 ar
     2    1    8 ar
     3    1   29 1
     4    2    6 ar
     5    2    8 ar
     6    2   30 1
     7    3    4 ar
     8    3    9 ar
     9    3   31 1
    10    4   11 ar
    11    4   32 1
    12    5   12 ar
    13    5   33 1
    14    6   12 ar
    15    6   34 1
    16    7   10 ar
    17    7   11 ar
    18    7   35 1
    19    8   13 1
    20    9   10 ar
    21    9   14 1
    22   10   15 1
    23   11   27 1
    24   12   28 1
    25   13   21 1
    26   13   26 2
    27   14   16 1
    28   14   36 1
    29   14   37 1
    30   15   16 1
    31   15   38 1
    32   15   39 1
    33   16   40 1
    34   16   41 1
    35   17   19 1
    36   17   21 1
    37   17   42 1
    38   17   43 1
    39   18   20 1
    40   18   21 1
    41   18   44 1
    42   18   45 1
    43   19   25 1
    44   19   46 1
    45   19   47 1
    46   20   25 1
    47   20   48 1
    48   20   49 1
    49   21   50 1
    50   22   23 1
    51   22   24 1
    52   22   51 1
    53   22   52 1
    54   23   25 1
    55   23   53 1
    56   23   54 1
    57   24   27 1
    58   24   55 1
    59   24   56 1
