@<TRIPOS>MOLECULE
*****
   47    50     0     0     0
SMALL
NO_CHARGES

@<TRIPOS>ATOM
      1 C1          6.3853   -1.9606   -5.3624 C.1       1 <0>         0.0000
      2 C2          8.5351   -0.3014   -2.8326 C.ar      1 <0>         0.0000
      3 C3          7.6979   -0.2982   -1.7094 C.ar      1 <0>         0.0000
      4 C4          8.0721   -0.8561   -4.0215 C.ar      1 <0>         0.0000
      5 C5          6.4185   -0.8422   -1.7770 C.ar      1 <0>         0.0000
      6 C6          3.7527   -2.5294   -3.9318 C.2       1 <0>         0.0000
      7 C7          2.5244   -2.8481   -3.2707 C.2       1 <0>         0.0000
      8 C8          6.7807   -1.4089   -4.0995 C.ar      1 <0>         0.0000
      9 C9          5.9229   -1.4122   -2.9683 C.ar      1 <0>         0.0000
     10 C10         4.5769   -1.9665   -2.9827 C.2       1 <0>         0.0000
     11 C11         2.6665   -2.4693   -1.9628 C.2       1 <0>         0.0000
     12 C12         0.8728    1.1586    1.1003 C.3       1 <0>         0.0000
     13 C13         1.2363    1.1587   -0.4085 C.3       1 <0>         0.0000
     14 C14        -1.3680   -0.0587    0.9127 C.3       1 <0>         0.0000
     15 C15         0.8314   -1.3651    1.1230 C.3       1 <0>         0.0000
     16 C16        -0.5598   -0.3778   -1.3802 C.3       1 <0>         0.0000
     17 C17         0.0584   -0.0863    1.4924 C.3       1 <0>         0.0000
     18 C18         0.9446   -0.2086   -1.0452 C.3       1 <0>         0.0000
     19 C19        -2.8190    0.3621   -0.9567 C.3       1 <0>         0.0000
     20 C20         1.7597   -2.5380   -0.7795 C.3       1 <0>         0.0000
     21 N1          6.0939   -2.3986   -6.4031 N.1       1 <0>         0.0000
     22 N2         -1.4420    0.3662   -0.4831 N.3       1 <0>         0.0000
     23 N3          1.5180   -1.2384   -0.1669 N.3       1 <0>         0.0000
     24 O1          3.9091   -1.9340   -1.7746 O.3       1 <0>         0.0000
     25 H1          9.5334    0.1229   -2.7805 H         1 <0>         0.0000
     26 H2          8.0456    0.1331   -0.7745 H         1 <0>         0.0000
     27 H3          8.7006   -0.8714   -4.9067 H         1 <0>         0.0000
     28 H4          5.7784   -0.8310   -0.9024 H         1 <0>         0.0000
     29 H5          3.9849   -2.6918   -4.9730 H         1 <0>         0.0000
     30 H6          1.6437   -3.2965   -3.7114 H         1 <0>         0.0000
     31 H7          1.7885    1.1707    1.7017 H         1 <0>         0.0000
     32 H8          0.3095    2.0610    1.3583 H         1 <0>         0.0000
     33 H9          0.6738    1.9309   -0.9390 H         1 <0>         0.0000
     34 H10         2.3022    1.3704   -0.5345 H         1 <0>         0.0000
     35 H11        -1.8294   -1.0565    1.0601 H         1 <0>         0.0000
     36 H12        -1.9679    0.6518    1.4945 H         1 <0>         0.0000
     37 H13         1.5830   -1.5790    1.8955 H         1 <0>         0.0000
     38 H14         0.1269   -2.2158    1.1251 H         1 <0>         0.0000
     39 H15        -0.7310    0.0123   -2.3898 H         1 <0>         0.0000
     40 H16        -0.8167   -1.4558   -1.4160 H         1 <0>         0.0000
     41 H17        -0.0653   -0.1014    2.5819 H         1 <0>         0.0000
     42 H18         1.4893   -0.2765   -1.9909 H         1 <0>         0.0000
     43 H19        -2.8656    0.7720   -1.9709 H         1 <0>         0.0000
     44 H20        -3.4352    0.9934   -0.3078 H         1 <0>         0.0000
     45 H21        -3.2699   -0.6494   -0.9745 H         1 <0>         0.0000
     46 H22         0.8358   -3.0517   -1.1042 H         1 <0>         0.0000
     47 H23         2.2164   -3.1787   -0.0136 H         1 <0>         0.0000
@<TRIPOS>BOND
     1    1    8 1
     2    1   21 3
     3    2    3 ar
     4    2    4 ar
     5    2   25 1
     6    3    5 ar
     7    3   26 1
     8    4    8 ar
     9    4   27 1
    10    5    9 ar
    11    5   28 1
    12    6    7 1
    13    6   10 2
    14    6   29 1
    15    7   11 2
    16    7   30 1
    17    8    9 ar
    18    9   10 1
    19   10   24 1
    20   11   20 1
    21   11   24 1
    22   12   13 1
    23   12   17 1
    24   12   31 1
    25   12   32 1
    26   13   18 1
    27   13   33 1
    28   13   34 1
    29   14   17 1
    30   14   22 1
    31   14   35 1
    32   14   36 1
    33   15   17 1
    34   15   23 1
    35   15   37 1
    36   15   38 1
    37   16   18 1
    38   16   22 1
    39   16   39 1
    40   16   40 1
    41   17   41 1
    42   18   23 1
    43   18   42 1
    44   19   22 1
    45   19   43 1
    46   19   44 1
    47   19   45 1
    48   20   23 1
    49   20   46 1
    50   20   47 1
