@<TRIPOS>MOLECULE
*****
   31    31     0     0     0
SMALL
NO_CHARGES

@<TRIPOS>ATOM
      1 C1         -0.8313    3.1494    2.6411 C.ar      1 <0>         0.0000
      2 C2          0.1305    2.0070    4.5182 C.ar      1 <0>         0.0000
      3 C3         -1.9267    3.5173    3.4182 C.ar      1 <0>         0.0000
      4 C4         -0.9620    2.3659    5.3174 C.ar      1 <0>         0.0000
      5 C5          0.2218    2.3853    3.1742 C.ar      1 <0>         0.0000
      6 C6         -2.0011    3.1269    4.7641 C.ar      1 <0>         0.0000
      7 C7          2.4261    0.1049    0.9204 C.3       1 <0>         0.0000
      8 C8          1.3834    1.9404    2.3150 C.3       1 <0>         0.0000
      9 C9         -4.4944    3.8068    7.3734 C.3       1 <0>         0.0000
     10 C10        -3.2180    3.2025    6.8276 C.3       1 <0>         0.0000
     11 C11         1.2024    0.5222    1.7375 C.3       1 <0>         0.0000
     12 N1          0.0139    0.5018    0.8678 N.3       1 <0>         0.0000
     13 O1         -4.3113    5.2160    7.5107 O.3       1 <0>         0.0000
     14 O2         -3.1182    3.5330    5.4449 O.3       1 <0>         0.0000
     15 H1         -0.7891    3.4596    1.5998 H         1 <0>         0.0000
     16 H2          0.9319    1.4195    4.9624 H         1 <0>         0.0000
     17 H3         -2.7356    4.1131    3.0050 H         1 <0>         0.0000
     18 H4         -0.9847    2.0544    6.3556 H         1 <0>         0.0000
     19 H5          2.5670    0.7853    0.0741 H         1 <0>         0.0000
     20 H6          2.3069   -0.9096    0.5216 H         1 <0>         0.0000
     21 H7          3.3319    0.1171    1.5361 H         1 <0>         0.0000
     22 H8          1.5169    2.6323    1.4760 H         1 <0>         0.0000
     23 H9          2.3082    1.9554    2.9032 H         1 <0>         0.0000
     24 H10        -4.7062    3.3423    8.3487 H         1 <0>         0.0000
     25 H11        -5.3216    3.5718    6.6900 H         1 <0>         0.0000
     26 H12        -3.2462    2.1113    6.9556 H         1 <0>         0.0000
     27 H13        -2.3589    3.6018    7.3820 H         1 <0>         0.0000
     28 H14         1.1035   -0.1705    2.5924 H         1 <0>         0.0000
     29 H15        -0.8149    0.7267    1.4171 H         1 <0>         0.0000
     30 H16        -0.1265   -0.4406    0.5059 H         1 <0>         0.0000
     31 H17        -5.1764    5.6264    7.6579 H         1 <0>         0.0000
@<TRIPOS>BOND
     1    1    3 ar
     2    1    5 ar
     3    1   15 1
     4    2    4 ar
     5    2    5 ar
     6    2   16 1
     7    3    6 ar
     8    3   17 1
     9    4    6 ar
    10    4   18 1
    11    5    8 1
    12    6   14 1
    13    7   11 1
    14    7   19 1
    15    7   20 1
    16    7   21 1
    17    8   11 1
    18    8   22 1
    19    8   23 1
    20    9   10 1
    21    9   13 1
    22    9   24 1
    23    9   25 1
    24   10   14 1
    25   10   26 1
    26   10   27 1
    27   11   12 1
    28   11   28 1
    29   12   29 1
    30   12   30 1
    31   13   31 1
