@<TRIPOS>MOLECULE
*****
   50    52     0     0     0
SMALL
NO_CHARGES

@<TRIPOS>ATOM
      1 C1        -10.8808    2.1229    8.0220 C.ar      1 <0>         0.0000
      2 C2         -6.7942    1.3013    1.1440 C.ar      1 <0>         0.0000
      3 C3        -10.9385    1.0960    8.9374 C.ar      1 <0>         0.0000
      4 C4         -7.6835    1.7314    2.1340 C.ar      1 <0>         0.0000
      5 C5         -5.8156    0.3527    1.4473 C.ar      1 <0>         0.0000
      6 C6        -10.1269    2.0035    6.8294 C.ar      1 <0>         0.0000
      7 C7         -9.5163   -2.3366    9.2760 C.ar      1 <0>         0.0000
      8 C8         -6.5805    0.2907    3.7308 C.ar      1 <0>         0.0000
      9 C9         -8.7805   -2.3677    8.0669 C.ar      1 <0>         0.0000
     10 C10       -10.2282   -0.1134    8.6959 C.ar      1 <0>         0.0000
     11 C11        -7.5778    1.2254    3.4332 C.ar      1 <0>         0.0000
     12 C12        -5.7020   -0.1652    2.7446 C.ar      1 <0>         0.0000
     13 C13       -10.2475   -1.2143    9.6097 C.ar      1 <0>         0.0000
     14 C14        -9.4556   -0.2538    7.4992 C.ar      1 <0>         0.0000
     15 C15        -9.4259    0.8391    6.5627 C.ar      1 <0>         0.0000
     16 C16       -11.0381   -1.1494   10.8914 C.3       1 <0>         0.0000
     17 C17        -7.6402   -4.6502    5.3254 C.3       1 <0>         0.0000
     18 C18        -8.5217    1.6925    4.5151 C.3       1 <0>         0.0000
     19 C19        -6.3538   -3.8212    5.4014 C.3       1 <0>         0.0000
     20 C20        -6.1285   -2.9661    4.1496 C.3       1 <0>         0.0000
     21 C21        -4.8790   -2.0839    4.2553 C.3       1 <0>         0.0000
     22 C22        -4.6222   -1.1922    3.0361 C.3       1 <0>         0.0000
     23 N1         -8.7395   -1.3745    7.2001 N.ar      1 <0>         0.0000
     24 O1         -3.3919   -0.4519    3.1893 O.3       1 <0>         0.0000
     25 O2         -8.6858    0.6240    5.4481 O.3       1 <0>         0.0000
     26 H1        -11.4224    3.0469    8.2072 H         1 <0>         0.0000
     27 H2         -6.8779    1.6926    0.1333 H         1 <0>         0.0000
     28 H3        -11.5247    1.2097    9.8429 H         1 <0>         0.0000
     29 H4         -8.4648    2.4482    1.8880 H         1 <0>         0.0000
     30 H5         -5.1333    0.0087    0.6733 H         1 <0>         0.0000
     31 H6        -10.1123    2.8317    6.1307 H         1 <0>         0.0000
     32 H7         -9.4963   -3.2019    9.9339 H         1 <0>         0.0000
     33 H8         -6.5295   -0.0982    4.7407 H         1 <0>         0.0000
     34 H9         -8.2048   -3.2569    7.8135 H         1 <0>         0.0000
     35 H10       -10.6974   -0.3244   11.5269 H         1 <0>         0.0000
     36 H11       -12.1034   -0.9875   10.6933 H         1 <0>         0.0000
     37 H12       -10.9368   -2.0775   11.4590 H         1 <0>         0.0000
     38 H13        -7.6307   -5.3180    4.4558 H         1 <0>         0.0000
     39 H14        -7.7711   -5.2732    6.2177 H         1 <0>         0.0000
     40 H15        -8.5157   -3.9979    5.2386 H         1 <0>         0.0000
     41 H16        -8.1129    2.5701    5.0364 H         1 <0>         0.0000
     42 H17        -9.4916    1.9743    4.0849 H         1 <0>         0.0000
     43 H18        -6.3987   -3.1576    6.2735 H         1 <0>         0.0000
     44 H19        -5.4917   -4.4845    5.5561 H         1 <0>         0.0000
     45 H20        -7.0126   -2.3414    3.9879 H         1 <0>         0.0000
     46 H21        -6.0444   -3.6179    3.2686 H         1 <0>         0.0000
     47 H22        -3.9986   -2.7303    4.3857 H         1 <0>         0.0000
     48 H23        -4.9291   -1.4596    5.1544 H         1 <0>         0.0000
     49 H24        -4.5357   -1.8407    2.1497 H         1 <0>         0.0000
     50 H25        -2.6884   -1.0944    3.3781 H         1 <0>         0.0000
@<TRIPOS>BOND
     1    1    3 ar
     2    1    6 ar
     3    1   26 1
     4    2    4 ar
     5    2    5 ar
     6    2   27 1
     7    3   10 ar
     8    3   28 1
     9    4   11 ar
    10    4   29 1
    11    5   12 ar
    12    5   30 1
    13    6   15 ar
    14    6   31 1
    15    7    9 ar
    16    7   13 ar
    17    7   32 1
    18    8   11 ar
    19    8   12 ar
    20    8   33 1
    21    9   23 ar
    22    9   34 1
    23   10   13 ar
    24   10   14 ar
    25   11   18 1
    26   12   22 1
    27   13   16 1
    28   14   15 ar
    29   14   23 ar
    30   15   25 1
    31   16   35 1
    32   16   36 1
    33   16   37 1
    34   17   19 1
    35   17   38 1
    36   17   39 1
    37   17   40 1
    38   18   25 1
    39   18   41 1
    40   18   42 1
    41   19   20 1
    42   19   43 1
    43   19   44 1
    44   20   21 1
    45   20   45 1
    46   20   46 1
    47   21   22 1
    48   21   47 1
    49   21   48 1
    50   22   24 1
    51   22   49 1
    52   24   50 1
