@<TRIPOS>MOLECULE
*****
   39    41     0     0     0
SMALL
NO_CHARGES

@<TRIPOS>ATOM
      1 C1         -4.0872   -3.0594    5.3066 C.ar      1 <0>         0.0000
      2 C2         -5.2616   -2.7942    4.5851 C.ar      1 <0>         0.0000
      3 C3         -3.0879   -3.8811    4.7746 C.ar      1 <0>         0.0000
      4 C4         -5.4658   -3.3449    3.3132 C.ar      1 <0>         0.0000
      5 C5         -4.6045   -9.2080   -0.4328 C.2       1 <0>         0.0000
      6 C6         -3.2872   -4.4285    3.5078 C.ar      1 <0>         0.0000
      7 C7         -3.6513   -8.4591    0.3367 C.2       1 <0>         0.0000
      8 C8         -4.4555   -4.1505    2.8055 C.ar      1 <0>         0.0000
      9 C9         -5.3313   -9.9873    0.4298 C.2       1 <0>         0.0000
     10 C10        -3.8132   -8.8354    1.6756 C.2       1 <0>         0.0000
     11 C11        -2.3414   -5.3132    2.7721 C.2       1 <0>         0.0000
     12 C12        -2.7736   -7.4764   -0.2907 C.2       1 <0>         0.0000
     13 C13        -6.4679  -10.9211    0.1589 C.3       1 <0>         0.0000
     14 C14        -3.0625   -8.4901    2.9223 C.3       1 <0>         0.0000
     15 C15        -5.2882  -10.4309    2.9202 C.3       1 <0>         0.0000
     16 C16        -2.1257   -6.3280    0.5026 C.3       1 <0>         0.0000
     17 N1         -4.8365   -9.7532    1.7161 N.pl3     1 <0>         0.0000
     18 N2         -2.9267   -5.7448    1.5831 N.am      1 <0>         0.0000
     19 O1         -1.2214   -5.6318    3.1427 O.2       1 <0>         0.0000
     20 O2         -2.5324   -7.4972   -1.4969 O.2       1 <0>         0.0000
     21 O3         -5.5156   -5.9904    1.1921 O.2       1 <0>         0.0000
     22 O4         -4.2716   -4.0754    0.1075 O.2       1 <0>         0.0000
     23 S1         -4.4527   -4.9924    1.2303 S.o2      1 <0>         0.0000
     24 H1         -3.9551   -2.6188    6.2907 H         1 <0>         0.0000
     25 H2         -6.0241   -2.1522    5.0168 H         1 <0>         0.0000
     26 H3         -2.1721   -4.0977    5.3163 H         1 <0>         0.0000
     27 H4         -6.3724   -3.1470    2.7496 H         1 <0>         0.0000
     28 H5         -4.7415   -9.1256   -1.5021 H         1 <0>         0.0000
     29 H6         -6.2553  -11.9476    0.4820 H         1 <0>         0.0000
     30 H7         -7.3958  -10.6016    0.6498 H         1 <0>         0.0000
     31 H8         -6.6581  -10.9463   -0.9164 H         1 <0>         0.0000
     32 H9         -3.6297   -7.8055    3.5661 H         1 <0>         0.0000
     33 H10        -2.8454   -9.3874    3.5121 H         1 <0>         0.0000
     34 H11        -2.1078   -8.0186    2.6987 H         1 <0>         0.0000
     35 H12        -4.6002  -11.2332    3.2123 H         1 <0>         0.0000
     36 H13        -5.3740   -9.7219    3.7469 H         1 <0>         0.0000
     37 H14        -6.2716  -10.8665    2.7446 H         1 <0>         0.0000
     38 H15        -1.8630   -5.5574   -0.2269 H         1 <0>         0.0000
     39 H16        -1.2032   -6.6768    0.9759 H         1 <0>         0.0000
@<TRIPOS>BOND
     1    1    2 ar
     2    1    3 ar
     3    1   24 1
     4    2    4 ar
     5    2   25 1
     6    3    6 ar
     7    3   26 1
     8    4    8 ar
     9    4   27 1
    10    5    7 1
    11    5    9 2
    12    5   28 1
    13    6    8 ar
    14    6   11 1
    15    7   10 2
    16    7   12 1
    17    8   23 1
    18    9   13 1
    19    9   17 1
    20   10   14 1
    21   10   17 1
    22   11   18 am
    23   11   19 2
    24   12   16 1
    25   12   20 2
    26   13   29 1
    27   13   30 1
    28   13   31 1
    29   14   32 1
    30   14   33 1
    31   14   34 1
    32   15   17 1
    33   15   35 1
    34   15   36 1
    35   15   37 1
    36   16   18 1
    37   16   38 1
    38   16   39 1
    39   18   23 1
    40   21   23 2
    41   22   23 2
