@<TRIPOS>MOLECULE
*****
   14    14     0     0     0
SMALL
NO_CHARGES

@<TRIPOS>ATOM
      1 C1         -0.4971    0.1298   -3.1307 C.2       1 <0>         0.0000
      2 C2         -0.1322    0.7418   -1.9646 C.2       1 <0>         0.0000
      3 C3         -0.4097   -0.0660   -0.8099 C.2       1 <0>         0.0000
      4 C4         -0.9810   -1.2737   -1.1188 C.2       1 <0>         0.0000
      5 C5         -1.4556   -2.3672   -0.2025 C.3       1 <0>         0.0000
      6 N1         -1.5190   -3.6437   -0.9255 N.3       1 <0>         0.0000
      7 S1         -1.1840   -1.4368   -2.8418 S.3       1 <0>         0.0000
      8 Br1         0.6654    2.4644   -1.9013 Br        1 <0>         0.0000
      9 Br2        -0.0486    0.4793    0.9760 Br        1 <0>         0.0000
     10 H1         -0.3863    0.5095   -4.1374 H         1 <0>         0.0000
     11 H2         -0.8139   -2.3770    0.6902 H         1 <0>         0.0000
     12 H3         -2.4685   -2.1257    0.1422 H         1 <0>         0.0000
     13 H4         -2.0447   -4.3268   -0.3850 H         1 <0>         0.0000
     14 H5         -0.5816   -4.0195   -1.0569 H         1 <0>         0.0000
@<TRIPOS>BOND
     1    1    2 2
     2    1    7 1
     3    1   10 1
     4    2    3 1
     5    2    8 1
     6    3    4 2
     7    3    9 1
     8    4    5 1
     9    4    7 1
    10    5    6 1
    11    5   11 1
    12    5   12 1
    13    6   13 1
    14    6   14 1
