@<TRIPOS>MOLECULE
*****
   26    27     0     0     0
SMALL
NO_CHARGES

@<TRIPOS>ATOM
      1 C1         -2.9956    0.0461    1.5991 C.3       1 <0>         0.0000
      2 C2         -1.7850    2.2166    1.2301 C.3       1 <0>         0.0000
      3 C3         -2.6627    0.1617    3.0891 C.3       1 <0>         0.0000
      4 C4         -1.4919    2.2607    2.7322 C.3       1 <0>         0.0000
      5 C5         -0.6189   -1.2991    0.2067 C.3       1 <0>         0.0000
      6 C6          0.4115    0.5479   -0.1061 C.3       1 <0>         0.0000
      7 C7         -1.9585    0.7739    0.7288 C.3       1 <0>         0.0000
      8 C8          0.7232   -0.9175   -0.4256 C.3       1 <0>         0.0000
      9 N1         -2.5724    1.5807    3.4597 N.3       1 <0>         0.0000
     10 N2         -0.6783    0.0692    0.7843 N.3       1 <0>         0.0000
     11 F1          0.8807   -1.2297   -1.7495 F         1 <0>         0.0000
     12 F2          1.8175   -1.4169    0.2303 F         1 <0>         0.0000
     13 H1         -3.0640   -1.0090    1.3104 H         1 <0>         0.0000
     14 H2         -3.9769    0.4977    1.4164 H         1 <0>         0.0000
     15 H3         -2.7125    2.7647    1.0312 H         1 <0>         0.0000
     16 H4         -0.9843    2.7202    0.6763 H         1 <0>         0.0000
     17 H5         -3.4596   -0.3011    3.6812 H         1 <0>         0.0000
     18 H6         -1.7274   -0.3867    3.2942 H         1 <0>         0.0000
     19 H7         -0.5053    1.8042    2.9217 H         1 <0>         0.0000
     20 H8         -1.4496    3.3023    3.0685 H         1 <0>         0.0000
     21 H9         -1.3747   -1.4942   -0.5681 H         1 <0>         0.0000
     22 H10        -0.6031   -2.1132    0.9364 H         1 <0>         0.0000
     23 H11         1.2007    1.1203    0.3887 H         1 <0>         0.0000
     24 H12         0.0599    1.0774   -1.0037 H         1 <0>         0.0000
     25 H13        -2.3277    0.8022   -0.3158 H         1 <0>         0.0000
     26 H14        -2.4024    1.6559    4.4601 H         1 <0>         0.0000
@<TRIPOS>BOND
     1    1    3 1
     2    1    7 1
     3    1   13 1
     4    1   14 1
     5    2    4 1
     6    2    7 1
     7    2   15 1
     8    2   16 1
     9    3    9 1
    10    3   17 1
    11    3   18 1
    12    4    9 1
    13    4   19 1
    14    4   20 1
    15    5    8 1
    16    5   10 1
    17    5   21 1
    18    5   22 1
    19    6    8 1
    20    6   10 1
    21    6   23 1
    22    6   24 1
    23    7   10 1
    24    7   25 1
    25    8   11 1
    26    8   12 1
    27    9   26 1
