@<TRIPOS>MOLECULE
*****
   41    41     0     0     0
SMALL
NO_CHARGES

@<TRIPOS>ATOM
      1 C1          1.3648   -0.2274   -0.1555 C.3       1 <0>         0.0000
      2 C2          1.1103   -1.5845    0.5566 C.3       1 <0>         0.0000
      3 C3          1.2057   -0.5465   -1.6546 C.3       1 <0>         0.0000
      4 C4          0.8692   -2.5981   -0.5852 C.3       1 <0>         0.0000
      5 C5          1.4040   -4.0044   -0.3166 C.3       1 <0>         0.0000
      6 C6          0.6804   -4.7020    0.8422 C.3       1 <0>         0.0000
      7 C7          1.1371  -10.7673    3.7620 C.3       1 <0>         0.0000
      8 C8          0.4976   -9.3771    3.6574 C.3       1 <0>         0.0000
      9 C9          0.4892  -11.5975    4.8757 C.3       1 <0>         0.0000
     10 C10         1.2343   -6.1084    1.0707 C.3       1 <0>         0.0000
     11 C11         1.1461   -8.5541    2.5444 C.3       1 <0>         0.0000
     12 C12         1.0831  -12.9825    5.0021 C.3       1 <0>         0.0000
     13 N1          1.5586   -1.9715   -1.7245 N.3       1 <0>         0.0000
     14 O1         -1.0519   -7.1315    2.0137 O.2       1 <0>         0.0000
     15 O2          0.6394   -6.1890    3.6808 O.2       1 <0>         0.0000
     16 F1          0.4905  -13.6887    5.9972 F         1 <0>         0.0000
     17 F2          2.4134  -12.9450    5.2789 F         1 <0>         0.0000
     18 F3          0.9388  -13.7065    3.8606 F         1 <0>         0.0000
     19 S1          0.3473   -6.9218    2.4338 S.o2      1 <0>         0.0000
     20 H1          0.6712    0.5539    0.1665 H         1 <0>         0.0000
     21 H2          2.3785    0.1262    0.0502 H         1 <0>         0.0000
     22 H3          1.9862   -1.8818    1.1422 H         1 <0>         0.0000
     23 H4          0.2588   -1.5459    1.2407 H         1 <0>         0.0000
     24 H5          0.1651   -0.3539   -1.9702 H         1 <0>         0.0000
     25 H6          1.8677    0.0491   -2.2909 H         1 <0>         0.0000
     26 H7         -0.2205   -2.6663   -0.7666 H         1 <0>         0.0000
     27 H8          1.2996   -4.6091   -1.2280 H         1 <0>         0.0000
     28 H9          2.4785   -3.9296   -0.1094 H         1 <0>         0.0000
     29 H10        -0.3914   -4.7689    0.6285 H         1 <0>         0.0000
     30 H11         0.7924   -4.1211    1.7623 H         1 <0>         0.0000
     31 H12         2.2103  -10.6696    3.9589 H         1 <0>         0.0000
     32 H13         1.0336  -11.2958    2.8080 H         1 <0>         0.0000
     33 H14        -0.5741   -9.4719    3.4545 H         1 <0>         0.0000
     34 H15         0.6025   -8.8420    4.6068 H         1 <0>         0.0000
     35 H16         0.6057  -11.1074    5.8470 H         1 <0>         0.0000
     36 H17        -0.5828  -11.7229    4.6963 H         1 <0>         0.0000
     37 H18         1.1024   -6.7440    0.1898 H         1 <0>         0.0000
     38 H19         2.2913   -6.0861    1.3525 H         1 <0>         0.0000
     39 H20         2.2078   -8.3748    2.7384 H         1 <0>         0.0000
     40 H21         1.0265   -9.0307    1.5668 H         1 <0>         0.0000
     41 H22         1.2648   -2.3864   -2.6067 H         1 <0>         0.0000
@<TRIPOS>BOND
     1    1    2 1
     2    1    3 1
     3    1   20 1
     4    1   21 1
     5    2    4 1
     6    2   22 1
     7    2   23 1
     8    3   13 1
     9    3   24 1
    10    3   25 1
    11    4    5 1
    12    4   13 1
    13    4   26 1
    14    5    6 1
    15    5   27 1
    16    5   28 1
    17    6   10 1
    18    6   29 1
    19    6   30 1
    20    7    8 1
    21    7    9 1
    22    7   31 1
    23    7   32 1
    24    8   11 1
    25    8   33 1
    26    8   34 1
    27    9   12 1
    28    9   35 1
    29    9   36 1
    30   10   19 1
    31   10   37 1
    32   10   38 1
    33   11   19 1
    34   11   39 1
    35   11   40 1
    36   12   16 1
    37   12   17 1
    38   12   18 1
    39   13   41 1
    40   14   19 2
    41   15   19 2
