@<TRIPOS>MOLECULE
*****
   42    43     0     0     0
SMALL
NO_CHARGES

@<TRIPOS>ATOM
      1 C1          5.2744    0.3142    5.6933 C.ar      1 <0>         0.0000
      2 C2          4.9946    0.8843    4.4432 C.ar      1 <0>         0.0000
      3 C3          3.5927   -1.3645    5.2993 C.ar      1 <0>         0.0000
      4 C4          4.5791   -0.8125    6.1324 C.ar      1 <0>         0.0000
      5 C5          4.0149    0.3365    3.6155 C.ar      1 <0>         0.0000
      6 C6          3.3059   -0.8102    4.0514 C.ar      1 <0>         0.0000
      7 C7         -0.5706   -1.0845    3.6399 C.3       1 <0>         0.0000
      8 C8         -0.3657   -1.6567    2.2054 C.3       1 <0>         0.0000
      9 C9          0.4244   -1.8452    4.5497 C.3       1 <0>         0.0000
     10 C10         0.7089   -2.7586    2.3468 C.3       1 <0>         0.0000
     11 C11         1.5053   -2.3614    3.5896 C.3       1 <0>         0.0000
     12 C12         6.3289   -1.8077    7.6510 C.3       1 <0>         0.0000
     13 C13         4.3600    1.9689    1.9122 C.3       1 <0>         0.0000
     14 C14         4.4197   -0.3801    8.5947 C.3       1 <0>         0.0000
     15 C15         4.8525   -1.4073    7.5077 C.3       1 <0>         0.0000
     16 N1          4.4633   -0.8262    9.9878 N.3       1 <0>         0.0000
     17 O1          4.0358   -2.5887    7.6367 O.3       1 <0>         0.0000
     18 O2          2.3834   -1.2978    3.1722 O.3       1 <0>         0.0000
     19 O3          3.6679    0.8208    2.3830 O.3       1 <0>         0.0000
     20 H1          6.0420    0.7715    6.3111 H         1 <0>         0.0000
     21 H2          5.5504    1.7603    4.1283 H         1 <0>         0.0000
     22 H3          3.0580   -2.2359    5.6486 H         1 <0>         0.0000
     23 H4         -0.3513   -0.0137    3.6545 H         1 <0>         0.0000
     24 H5         -1.5998   -1.2058    3.9904 H         1 <0>         0.0000
     25 H6         -1.2930   -2.0507    1.7791 H         1 <0>         0.0000
     26 H7         -0.0075   -0.8721    1.5342 H         1 <0>         0.0000
     27 H8          0.8338   -1.2250    5.3501 H         1 <0>         0.0000
     28 H9         -0.0572   -2.7104    5.0208 H         1 <0>         0.0000
     29 H10         0.2454   -3.7342    2.5333 H         1 <0>         0.0000
     30 H11         1.3540   -2.8533    1.4695 H         1 <0>         0.0000
     31 H12         2.0975   -3.1899    3.9936 H         1 <0>         0.0000
     32 H13         6.5201   -2.2593    8.6334 H         1 <0>         0.0000
     33 H14         6.9937   -0.9461    7.5464 H         1 <0>         0.0000
     34 H15         6.5895   -2.5400    6.8826 H         1 <0>         0.0000
     35 H16         3.9399    2.1884    0.9294 H         1 <0>         0.0000
     36 H17         5.4362    1.7775    1.8115 H         1 <0>         0.0000
     37 H18         4.2057    2.8318    2.5731 H         1 <0>         0.0000
     38 H19         3.3912   -0.0814    8.3717 H         1 <0>         0.0000
     39 H20         5.0382    0.5185    8.5030 H         1 <0>         0.0000
     40 H21         5.3942   -1.1332   10.2605 H         1 <0>         0.0000
     41 H22         3.8128   -1.5922   10.1474 H         1 <0>         0.0000
     42 H23         4.3106   -3.0385    8.4508 H         1 <0>         0.0000
@<TRIPOS>BOND
     1    1    2 ar
     2    1    4 ar
     3    1   20 1
     4    2    5 ar
     5    2   21 1
     6    3    4 ar
     7    3    6 ar
     8    3   22 1
     9    4   15 1
    10    5    6 ar
    11    5   19 1
    12    6   18 1
    13    7    8 1
    14    7    9 1
    15    7   23 1
    16    7   24 1
    17    8   10 1
    18    8   25 1
    19    8   26 1
    20    9   11 1
    21    9   27 1
    22    9   28 1
    23   10   11 1
    24   10   29 1
    25   10   30 1
    26   11   18 1
    27   11   31 1
    28   12   15 1
    29   12   32 1
    30   12   33 1
    31   12   34 1
    32   13   19 1
    33   13   35 1
    34   13   36 1
    35   13   37 1
    36   14   15 1
    37   14   16 1
    38   14   38 1
    39   14   39 1
    40   15   17 1
    41   16   40 1
    42   16   41 1
    43   17   42 1
