@<TRIPOS>MOLECULE
*****
   39    41     0     0     0
SMALL
NO_CHARGES

@<TRIPOS>ATOM
      1 C1         -7.2931   -3.9024    4.3257 C.ar      1 <0>         0.0000
      2 C2         -6.8507   -4.2000    5.6235 C.ar      1 <0>         0.0000
      3 C3         -6.5081   -4.2129    3.2095 C.ar      1 <0>         0.0000
      4 C4         -5.6102   -4.8154    5.8378 C.ar      1 <0>         0.0000
      5 C5         -4.0605   -8.7305    2.2704 C.2       1 <0>         0.0000
      6 C6         -5.2750   -4.8269    3.4176 C.ar      1 <0>         0.0000
      7 C7         -3.4372   -8.2048    1.0835 C.2       1 <0>         0.0000
      8 C8         -4.8528   -5.1129    4.7134 C.ar      1 <0>         0.0000
      9 C9         -5.0126   -9.6389    1.8765 C.2       1 <0>         0.0000
     10 C10        -4.0552   -8.8164   -0.0139 C.2       1 <0>         0.0000
     11 C11        -4.3013   -5.2331    2.3618 C.2       1 <0>         0.0000
     12 C12        -2.3756   -7.2115    0.9879 C.2       1 <0>         0.0000
     13 C13        -5.9257  -10.4904    2.7001 C.3       1 <0>         0.0000
     14 C14        -3.8552   -8.6058   -1.4797 C.3       1 <0>         0.0000
     15 C15        -5.9236  -10.4528   -0.3374 C.3       1 <0>         0.0000
     16 C16        -2.0503   -6.3450    2.2232 C.3       1 <0>         0.0000
     17 N1         -5.0012   -9.6803    0.4793 N.pl3     1 <0>         0.0000
     18 N2         -3.2237   -5.8777    2.9603 N.am      1 <0>         0.0000
     19 O1         -4.4130   -5.0479    1.1621 O.2       1 <0>         0.0000
     20 O2         -1.6763   -7.0314   -0.0078 O.2       1 <0>         0.0000
     21 O3         -2.2015   -4.9800    5.1877 O.2       1 <0>         0.0000
     22 O4         -3.2787   -7.2555    5.1693 O.2       1 <0>         0.0000
     23 S1         -3.2394   -5.8756    4.6812 S.o2      1 <0>         0.0000
     24 H1         -8.2584   -3.4235    4.1885 H         1 <0>         0.0000
     25 H2         -7.4757   -3.9493    6.4758 H         1 <0>         0.0000
     26 H3         -6.8326   -3.9895    2.1977 H         1 <0>         0.0000
     27 H4         -5.2589   -5.0477    6.8384 H         1 <0>         0.0000
     28 H5         -3.8097   -8.5093    3.2983 H         1 <0>         0.0000
     29 H6         -6.9838  -10.3098    2.4733 H         1 <0>         0.0000
     30 H7         -5.7360  -11.5625    2.5628 H         1 <0>         0.0000
     31 H8         -5.7691  -10.2616    3.7567 H         1 <0>         0.0000
     32 H9         -3.4046   -9.4864   -1.9556 H         1 <0>         0.0000
     33 H10        -4.8037   -8.3996   -1.9893 H         1 <0>         0.0000
     34 H11        -3.1777   -7.7676   -1.6346 H         1 <0>         0.0000
     35 H12        -6.8130   -9.8673   -0.5987 H         1 <0>         0.0000
     36 H13        -5.4313  -10.7709   -1.2578 H         1 <0>         0.0000
     37 H14        -6.2399  -11.3439    0.2064 H         1 <0>         0.0000
     38 H15        -1.4529   -5.4991    1.8773 H         1 <0>         0.0000
     39 H16        -1.4421   -6.9423    2.9104 H         1 <0>         0.0000
@<TRIPOS>BOND
     1    1    2 ar
     2    1    3 ar
     3    1   24 1
     4    2    4 ar
     5    2   25 1
     6    3    6 ar
     7    3   26 1
     8    4    8 ar
     9    4   27 1
    10    5    7 1
    11    5    9 2
    12    5   28 1
    13    6    8 ar
    14    6   11 1
    15    7   10 2
    16    7   12 1
    17    8   23 1
    18    9   13 1
    19    9   17 1
    20   10   14 1
    21   10   17 1
    22   11   18 am
    23   11   19 2
    24   12   16 1
    25   12   20 2
    26   13   29 1
    27   13   30 1
    28   13   31 1
    29   14   32 1
    30   14   33 1
    31   14   34 1
    32   15   17 1
    33   15   35 1
    34   15   36 1
    35   15   37 1
    36   16   18 1
    37   16   38 1
    38   16   39 1
    39   18   23 1
    40   21   23 2
    41   22   23 2
