@<TRIPOS>MOLECULE
*****
   39    42     0     0     0
SMALL
NO_CHARGES

@<TRIPOS>ATOM
      1 C1          4.9254   -3.3243    5.9231 C.ar      1 <0>         0.0000
      2 C2          2.4855    2.9745   -4.3873 C.ar      1 <0>         0.0000
      3 C3          3.8412   -3.5696    5.1052 C.ar      1 <0>         0.0000
      4 C4          1.8327    2.3779   -3.3077 C.ar      1 <0>         0.0000
      5 C5          5.5746   -2.0659    5.9013 C.ar      1 <0>         0.0000
      6 C6          1.8575   -1.6957    2.5448 C.ar      1 <0>         0.0000
      7 C7          3.6157    2.3445   -4.9169 C.ar      1 <0>         0.0000
      8 C8          3.4682    0.6369   -3.3991 C.ar      1 <0>         0.0000
      9 C9          3.3702   -2.5535    4.2354 C.ar      1 <0>         0.0000
     10 C10         2.3249    1.1744   -2.7880 C.ar      1 <0>         0.0000
     11 C11         4.0047   -1.2728    4.1908 C.ar      1 <0>         0.0000
     12 C12         2.2572   -2.7320    3.3612 C.ar      1 <0>         0.0000
     13 C13         5.1178   -1.0824    5.0562 C.ar      1 <0>         0.0000
     14 C14         2.5683   -0.4677    2.5927 C.ar      1 <0>         0.0000
     15 C15         1.0724    1.2984   -0.4681 C.3       1 <0>         0.0000
     16 C16         2.5034   -0.2481   -0.5684 C.3       1 <0>         0.0000
     17 C17         1.6490    0.4694   -1.6465 C.3       1 <0>         0.0000
     18 C18         2.1161    0.6924    1.7279 C.3       1 <0>         0.0000
     19 N1          4.1069    1.1937   -4.4367 N.ar      1 <0>         0.0000
     20 N2          3.6094   -0.2539    3.3770 N.ar      1 <0>         0.0000
     21 N3          1.5570    0.2512    0.4609 N.3       1 <0>         0.0000
     22 O1          1.6404   -3.9490    3.3884 O.3       1 <0>         0.0000
     23 F1          5.7422    0.1137    5.0407 F         1 <0>         0.0000
     24 H1          5.2915   -4.0970    6.5930 H         1 <0>         0.0000
     25 H2          2.1311    3.9099   -4.8117 H         1 <0>         0.0000
     26 H3          3.3389   -4.5307    5.1161 H         1 <0>         0.0000
     27 H4          0.9519    2.8443   -2.8715 H         1 <0>         0.0000
     28 H5          6.4286   -1.8608    6.5399 H         1 <0>         0.0000
     29 H6          1.0195   -1.7886    1.8584 H         1 <0>         0.0000
     30 H7          4.1500    2.7822   -5.7588 H         1 <0>         0.0000
     31 H8          3.8936   -0.2950   -3.0269 H         1 <0>         0.0000
     32 H9          1.6071    2.2548   -0.3522 H         1 <0>         0.0000
     33 H10        -0.0075    1.4783   -0.4343 H         1 <0>         0.0000
     34 H11         2.5981   -1.3375   -0.6172 H         1 <0>         0.0000
     35 H12         3.5054    0.1992   -0.4759 H         1 <0>         0.0000
     36 H13         0.8830   -0.2135   -2.0289 H         1 <0>         0.0000
     37 H14         1.3342    1.2452    2.2661 H         1 <0>         0.0000
     38 H15         2.9717    1.3767    1.6059 H         1 <0>         0.0000
     39 H16         0.9021   -3.9428    2.7572 H         1 <0>         0.0000
@<TRIPOS>BOND
     1    1    3 ar
     2    1    5 ar
     3    1   24 1
     4    2    4 ar
     5    2    7 ar
     6    2   25 1
     7    3    9 ar
     8    3   26 1
     9    4   10 ar
    10    4   27 1
    11    5   13 ar
    12    5   28 1
    13    6   12 ar
    14    6   14 ar
    15    6   29 1
    16    7   19 ar
    17    7   30 1
    18    8   10 ar
    19    8   19 ar
    20    8   31 1
    21    9   11 ar
    22    9   12 ar
    23   10   17 1
    24   11   13 ar
    25   11   20 ar
    26   12   22 1
    27   13   23 1
    28   14   18 1
    29   14   20 ar
    30   15   17 1
    31   15   21 1
    32   15   32 1
    33   15   33 1
    34   16   17 1
    35   16   21 1
    36   16   34 1
    37   16   35 1
    38   17   36 1
    39   18   21 1
    40   18   37 1
    41   18   38 1
    42   22   39 1
