@<TRIPOS>MOLECULE
*****
   39    42     0     0     0
SMALL
NO_CHARGES

@<TRIPOS>ATOM
      1 C1          3.1414   -4.5619    5.6637 C.ar      1 <0>         0.0000
      2 C2         -3.5033    1.9424   -2.4298 C.ar      1 <0>         0.0000
      3 C3          3.6721   -3.9312    4.5567 C.ar      1 <0>         0.0000
      4 C4         -2.2577    1.9530   -1.8008 C.ar      1 <0>         0.0000
      5 C5          1.9011   -4.1451    6.2055 C.ar      1 <0>         0.0000
      6 C6          2.7174   -1.1169    2.2830 C.ar      1 <0>         0.0000
      7 C7         -4.0488    0.7134   -2.8129 C.ar      1 <0>         0.0000
      8 C8         -2.2408   -0.4295   -1.9967 C.ar      1 <0>         0.0000
      9 C9          2.9717   -2.8548    3.9557 C.ar      1 <0>         0.0000
     10 C10        -1.5944    0.7413   -1.5713 C.ar      1 <0>         0.0000
     11 C11         1.7175   -2.4110    4.4797 C.ar      1 <0>         0.0000
     12 C12         3.4553   -2.1548    2.8106 C.ar      1 <0>         0.0000
     13 C13         1.2226   -3.1023    5.6204 C.ar      1 <0>         0.0000
     14 C14         1.4850   -0.7676    2.8952 C.ar      1 <0>         0.0000
     15 C15         0.1048   -0.4586    0.0584 C.3       1 <0>         0.0000
     16 C16         0.0812    1.6412    0.2584 C.3       1 <0>         0.0000
     17 C17        -0.2388    0.6906   -0.9257 C.3       1 <0>         0.0000
     18 C18         0.6820    0.3962    2.3483 C.3       1 <0>         0.0000
     19 N1         -3.4348   -0.4593   -2.6034 N.ar      1 <0>         0.0000
     20 N2          0.9889   -1.3883    3.9503 N.ar      1 <0>         0.0000
     21 N3          0.8160    0.5305    0.9072 N.3       1 <0>         0.0000
     22 O1          4.6500   -2.5663    2.2952 O.3       1 <0>         0.0000
     23 F1          0.0411   -2.7114    6.1419 F         1 <0>         0.0000
     24 H1          3.6723   -5.3865    6.1307 H         1 <0>         0.0000
     25 H2         -4.0455    2.8647   -2.6195 H         1 <0>         0.0000
     26 H3          4.6213   -4.2450    4.1361 H         1 <0>         0.0000
     27 H4         -1.8072    2.8927   -1.4884 H         1 <0>         0.0000
     28 H5          1.4732   -4.6333    7.0759 H         1 <0>         0.0000
     29 H6          3.0432   -0.5599    1.4080 H         1 <0>         0.0000
     30 H7         -5.0190    0.6678   -3.3055 H         1 <0>         0.0000
     31 H8         -1.7683   -1.3982   -1.8350 H         1 <0>         0.0000
     32 H9         -0.7960   -0.8649    0.5443 H         1 <0>         0.0000
     33 H10         0.7245   -1.2859   -0.3018 H         1 <0>         0.0000
     34 H11         0.6812    2.5365    0.0630 H         1 <0>         0.0000
     35 H12        -0.8340    1.9250    0.8024 H         1 <0>         0.0000
     36 H13         0.5426    0.7726   -1.6886 H         1 <0>         0.0000
     37 H14        -0.3636    0.2680    2.6733 H         1 <0>         0.0000
     38 H15         1.0522    1.3226    2.8081 H         1 <0>         0.0000
     39 H16         4.8698   -2.0132    1.5275 H         1 <0>         0.0000
@<TRIPOS>BOND
     1    1    3 ar
     2    1    5 ar
     3    1   24 1
     4    2    4 ar
     5    2    7 ar
     6    2   25 1
     7    3    9 ar
     8    3   26 1
     9    4   10 ar
    10    4   27 1
    11    5   13 ar
    12    5   28 1
    13    6   12 ar
    14    6   14 ar
    15    6   29 1
    16    7   19 ar
    17    7   30 1
    18    8   10 ar
    19    8   19 ar
    20    8   31 1
    21    9   11 ar
    22    9   12 ar
    23   10   17 1
    24   11   13 ar
    25   11   20 ar
    26   12   22 1
    27   13   23 1
    28   14   18 1
    29   14   20 ar
    30   15   17 1
    31   15   21 1
    32   15   32 1
    33   15   33 1
    34   16   17 1
    35   16   21 1
    36   16   34 1
    37   16   35 1
    38   17   36 1
    39   18   21 1
    40   18   37 1
    41   18   38 1
    42   22   39 1
