@<TRIPOS>MOLECULE
*****
   52    55     0     0     0
SMALL
NO_CHARGES

@<TRIPOS>ATOM
      1 C1         -1.9941   -2.2347   -5.3164 C.ar      1 <0>         0.0000
      2 C2         -1.3015   -1.1219   -5.8074 C.ar      1 <0>         0.0000
      3 C3         -1.5118   -2.9237   -4.1991 C.ar      1 <0>         0.0000
      4 C4         -0.1309   -0.6962   -5.1766 C.ar      1 <0>         0.0000
      5 C5         -0.3446   -2.4928   -3.5626 C.ar      1 <0>         0.0000
      6 C6         -0.6744    2.5352   -1.8080 C.ar      1 <0>         0.0000
      7 C7         -0.7328    4.1802   -0.0324 C.ar      1 <0>         0.0000
      8 C8         -0.1443    1.5946   -0.9078 C.ar      1 <0>         0.0000
      9 C9          0.3492   -1.3748   -4.0453 C.ar      1 <0>         0.0000
     10 C10        -0.2522    3.2505    0.8885 C.ar      1 <0>         0.0000
     11 C11         0.0307    1.9436    0.4370 C.ar      1 <0>         0.0000
     12 C12        -0.9578    3.8217   -1.3686 C.ar      1 <0>         0.0000
     13 C13        -1.0630   -1.2029    3.6171 C.3       1 <0>         0.0000
     14 C14         0.4317   -0.8613    3.5747 C.3       1 <0>         0.0000
     15 C15        -1.8356   -0.4422    2.5326 C.3       1 <0>         0.0000
     16 C16         1.0241   -1.1084    2.1804 C.3       1 <0>         0.0000
     17 C17        -1.2415   -0.6918    1.1399 C.3       1 <0>         0.0000
     18 C18         0.8749   -0.6481   -0.2932 C.3       1 <0>         0.0000
     19 C19         0.2348    0.2151   -1.3855 C.3       1 <0>         0.0000
     20 C20         0.2612   -0.3605    1.0822 C.3       1 <0>         0.0000
     21 C21        -0.0430    3.6000    2.3387 C.3       1 <0>         0.0000
     22 C22         1.5760   -0.8714   -3.3392 C.3       1 <0>         0.0000
     23 N1          1.2433    0.3822   -2.5312 N.4       1 <0>         0.0000
     24 O1          0.4724    1.0530    1.3698 O.3       1 <0>         0.0000
     25 Cl1        -1.6163    4.9949   -2.4846 Cl        1 <0>         0.0000
     26 H1         -2.9004   -2.5706   -5.8117 H         1 <0>         0.0000
     27 H2         -1.6650   -0.5975   -6.6862 H         1 <0>         0.0000
     28 H3         -2.0404   -3.7964   -3.8271 H         1 <0>         0.0000
     29 H4          0.4198    0.1504   -5.5855 H         1 <0>         0.0000
     30 H5          0.0315   -3.0369   -2.6990 H         1 <0>         0.0000
     31 H6         -0.9047    2.2632   -2.8371 H         1 <0>         0.0000
     32 H7         -0.9604    5.1908    0.2931 H         1 <0>         0.0000
     33 H8         -1.4743   -0.9703    4.6046 H         1 <0>         0.0000
     34 H9         -1.1965   -2.2831    3.4685 H         1 <0>         0.0000
     35 H10         0.5791    0.1895    3.8460 H         1 <0>         0.0000
     36 H11         0.9823   -1.4585    4.3085 H         1 <0>         0.0000
     37 H12        -2.8896   -0.7382    2.5313 H         1 <0>         0.0000
     38 H13        -1.8111    0.6326    2.7461 H         1 <0>         0.0000
     39 H14         2.0768   -0.8061    2.1508 H         1 <0>         0.0000
     40 H15         0.9859   -2.1800    1.9476 H         1 <0>         0.0000
     41 H16        -1.3552   -1.7510    0.8744 H         1 <0>         0.0000
     42 H17        -1.7941   -0.1169    0.3892 H         1 <0>         0.0000
     43 H18         0.7711   -1.7102   -0.5278 H         1 <0>         0.0000
     44 H19         1.9479   -0.4269   -0.2226 H         1 <0>         0.0000
     45 H20        -0.6164   -0.2894   -1.8472 H         1 <0>         0.0000
     46 H21        -0.6506    2.9570    2.9834 H         1 <0>         0.0000
     47 H22         0.9997    3.4465    2.6335 H         1 <0>         0.0000
     48 H23        -0.3101    4.6403    2.5339 H         1 <0>         0.0000
     49 H24         1.9887   -1.5977   -2.6396 H         1 <0>         0.0000
     50 H25         2.3627   -0.5697   -4.0354 H         1 <0>         0.0000
     51 H26         0.8703    1.0889   -3.1750 H         1 <0>         0.0000
     52 H27         2.0999    0.7899   -2.1362 H         1 <0>         0.0000
@<TRIPOS>BOND
     1    1    3 ar
     2    1    2 ar
     3    1   26 1
     4    2    4 ar
     5    2   27 1
     6    3    5 ar
     7    3   28 1
     8    4    9 ar
     9    4   29 1
    10    5    9 ar
    11    5   30 1
    12    6    8 ar
    13    6   12 ar
    14    6   31 1
    15    7   10 ar
    16    7   12 ar
    17    7   32 1
    18    8   11 ar
    19    8   19 1
    20    9   22 1
    21   10   11 ar
    22   10   21 1
    23   11   24 1
    24   12   25 1
    25   13   15 1
    26   13   14 1
    27   13   33 1
    28   13   34 1
    29   14   16 1
    30   14   35 1
    31   14   36 1
    32   15   17 1
    33   15   37 1
    34   15   38 1
    35   16   20 1
    36   16   39 1
    37   16   40 1
    38   17   20 1
    39   17   41 1
    40   17   42 1
    41   18   19 1
    42   18   20 1
    43   18   43 1
    44   18   44 1
    45   19   23 1
    46   19   45 1
    47   20   24 1
    48   21   46 1
    49   21   47 1
    50   21   48 1
    51   22   23 1
    52   22   49 1
    53   22   50 1
    54   23   51 1
    55   23   52 1
