@<TRIPOS>MOLECULE
*****
   49    51     0     0     0
SMALL
NO_CHARGES

@<TRIPOS>ATOM
      1 C1         -2.3232   -2.1427    5.6207 C.ar      1 <0>         0.0000
      2 C2         -1.6410   -1.3147    4.7346 C.ar      1 <0>         0.0000
      3 C3         -2.9416   -3.3118    5.1630 C.ar      1 <0>         0.0000
      4 C4         -2.2522   -2.7828    2.8646 C.ar      1 <0>         0.0000
      5 C5         -1.6080   -1.6420    3.3792 C.ar      1 <0>         0.0000
      6 C6         -2.9109   -3.6151    3.7891 C.ar      1 <0>         0.0000
      7 C7         -5.8046   -4.3358    7.2773 C.2       1 <0>         0.0000
      8 C8         -3.7426   -3.5460    8.6009 C.2       1 <0>         0.0000
      9 C9         -3.5611   -4.2280    6.1804 C.2       1 <0>         0.0000
     10 C10        -5.8620   -5.6366    8.0608 C.3       1 <0>         0.0000
     11 C11        -4.1592   -4.5832    9.6226 C.3       1 <0>         0.0000
     12 C12        -4.6555   -5.8855    8.9795 C.3       1 <0>         0.0000
     13 C13        -4.9251   -1.6047   -0.7738 C.3       1 <0>         0.0000
     14 C14        -5.8159   -2.8344   -0.9624 C.3       1 <0>         0.0000
     15 C15        -3.6045   -3.4882   -1.3850 C.3       1 <0>         0.0000
     16 C16        -4.4710   -3.5722    7.2396 C.3       1 <0>         0.0000
     17 C17        -3.5683   -2.2446   -0.4829 C.3       1 <0>         0.0000
     18 C18         0.8772   -1.3537    2.0432 C.3       1 <0>         0.0000
     19 C19        -2.3227   -3.0905    1.3829 C.3       1 <0>         0.0000
     20 O1         -6.7735   -3.8767    6.7019 O.2       1 <0>         0.0000
     21 O2         -2.8935   -2.6996    8.8188 O.2       1 <0>         0.0000
     22 O3         -3.3509   -5.4277    6.1837 O.2       1 <0>         0.0000
     23 O4         -1.3490   -0.2862    1.0422 O.2       1 <0>         0.0000
     24 O5         -0.3588    0.6917    3.1776 O.2       1 <0>         0.0000
     25 O6         -4.9833   -3.8144   -1.6095 O.3       1 <0>         0.0000
     26 O7         -3.5582   -2.5708    0.9135 O.3       1 <0>         0.0000
     27 S1         -0.6744   -0.4705    2.3352 S.o2      1 <0>         0.0000
     28 Cl1        -3.7835   -5.0115    3.1982 Cl        1 <0>         0.0000
     29 H1         -2.3551   -1.8980    6.6788 H         1 <0>         0.0000
     30 H2         -1.1497   -0.4119    5.0804 H         1 <0>         0.0000
     31 H3         -6.7988   -5.6047    8.6277 H         1 <0>         0.0000
     32 H4         -5.9702   -6.4457    7.3305 H         1 <0>         0.0000
     33 H5         -3.3199   -4.7420   10.3041 H         1 <0>         0.0000
     34 H6         -4.9659   -4.1231   10.2133 H         1 <0>         0.0000
     35 H7         -3.8439   -6.3403    8.4083 H         1 <0>         0.0000
     36 H8         -4.9346   -6.5938    9.7648 H         1 <0>         0.0000
     37 H9         -4.8645   -1.0239   -1.6996 H         1 <0>         0.0000
     38 H10        -5.2397   -0.9489    0.0403 H         1 <0>         0.0000
     39 H11        -6.1597   -3.2212    0.0054 H         1 <0>         0.0000
     40 H12        -6.6830   -2.6541   -1.6041 H         1 <0>         0.0000
     41 H13        -3.1243   -3.2789   -2.3504 H         1 <0>         0.0000
     42 H14        -3.0996   -4.3464   -0.9272 H         1 <0>         0.0000
     43 H15        -4.6854   -2.5437    6.9478 H         1 <0>         0.0000
     44 H16        -2.7214   -1.5846   -0.7002 H         1 <0>         0.0000
     45 H17         1.4918   -0.6859    1.4357 H         1 <0>         0.0000
     46 H18         1.3530   -1.5459    3.0056 H         1 <0>         0.0000
     47 H19         0.6776   -2.2824    1.5074 H         1 <0>         0.0000
     48 H20        -1.4932   -2.6260    0.8452 H         1 <0>         0.0000
     49 H21        -2.2637   -4.1734    1.2261 H         1 <0>         0.0000
@<TRIPOS>BOND
     1    1    2 ar
     2    1    3 ar
     3    1   29 1
     4    2    5 ar
     5    2   30 1
     6    3    6 ar
     7    3    9 1
     8    4    5 ar
     9    4    6 ar
    10    4   19 1
    11    5   27 1
    12    6   28 1
    13    7   10 1
    14    7   16 1
    15    7   20 2
    16    8   11 1
    17    8   16 1
    18    8   21 2
    19    9   16 1
    20    9   22 2
    21   10   12 1
    22   10   31 1
    23   10   32 1
    24   11   12 1
    25   11   33 1
    26   11   34 1
    27   12   35 1
    28   12   36 1
    29   13   14 1
    30   13   17 1
    31   13   37 1
    32   13   38 1
    33   14   25 1
    34   14   39 1
    35   14   40 1
    36   15   17 1
    37   15   25 1
    38   15   41 1
    39   15   42 1
    40   16   43 1
    41   17   26 1
    42   17   44 1
    43   18   27 1
    44   18   45 1
    45   18   46 1
    46   18   47 1
    47   19   26 1
    48   19   48 1
    49   19   49 1
    50   23   27 2
    51   24   27 2
