@<TRIPOS>MOLECULE
*****
   50    53     0     0     0
SMALL
NO_CHARGES

@<TRIPOS>ATOM
      1 C1          3.6381    8.9806  -10.7992 C.ar      1 <0>         0.0000
      2 C2          2.9567    9.5449   -9.6882 C.ar      1 <0>         0.0000
      3 C3          3.7374    7.6105  -10.9281 C.ar      1 <0>         0.0000
      4 C4          3.2257    5.3344  -10.0253 C.ar      1 <0>         0.0000
      5 C5          0.6855   -0.1131   -5.4774 C.ar      1 <0>         0.0000
      6 C6         -0.2542    1.6299   -4.1236 C.ar      1 <0>         0.0000
      7 C7          2.3881    8.7340   -8.7275 C.ar      1 <0>         0.0000
      8 C8          1.1948    0.8390   -6.3632 C.ar      1 <0>         0.0000
      9 C9          0.2503    2.5965   -4.9997 C.ar      1 <0>         0.0000
     10 C10         2.6408    4.5755   -9.0385 C.ar      1 <0>         0.0000
     11 C11         3.1612    6.7509   -9.9543 C.ar      1 <0>         0.0000
     12 C12        -0.0342    0.2587   -4.3302 C.ar      1 <0>         0.0000
     13 C13         2.4747    7.3185   -8.8340 C.ar      1 <0>         0.0000
     14 C14         0.9867    2.1989   -6.1221 C.ar      1 <0>         0.0000
     15 C15         1.9817    5.2373   -7.9638 C.ar      1 <0>         0.0000
     16 C16        -2.1777   -0.7591   -3.4111 C.2       1 <0>         0.0000
     17 C17         1.6180   -0.9079   -0.2661 C.3       1 <0>         0.0000
     18 C18         0.6289   -2.0841   -0.1912 C.3       1 <0>         0.0000
     19 C19         1.3872   -0.3591   -1.6836 C.3       1 <0>         0.0000
     20 C20        -0.6350   -1.5569   -0.9030 C.3       1 <0>         0.0000
     21 C21        -0.1436   -0.4710   -1.9075 C.3       1 <0>         0.0000
     22 C22         1.3152    4.4566   -6.8528 C.3       1 <0>         0.0000
     23 C23        -0.5733   -0.7824   -3.3620 C.3       1 <0>         0.0000
     24 N1          1.9000    6.5527   -7.8618 N.ar      1 <0>         0.0000
     25 O1         -2.6648    0.2975   -2.9193 O.co2     1 <0>         0.0000
     26 O2         -2.7342   -1.7590   -3.9060 O.co2     1 <0>         0.0000
     27 O3         -0.1083   -2.0931   -3.7268 O.3       1 <0>         0.0000
     28 O4          1.5376    3.0750   -7.0507 O.3       1 <0>         0.0000
     29 H1          4.0803    9.6336  -11.5474 H         1 <0>         0.0000
     30 H2          2.8845   10.6261   -9.5977 H         1 <0>         0.0000
     31 H3          4.2576    7.1716  -11.7773 H         1 <0>         0.0000
     32 H4          3.7377    4.8617  -10.8614 H         1 <0>         0.0000
     33 H5          0.8193   -1.1685   -5.6921 H         1 <0>         0.0000
     34 H6         -0.8735    1.9340   -3.2872 H         1 <0>         0.0000
     35 H7          1.8626    9.1458   -7.8707 H         1 <0>         0.0000
     36 H8          1.7472    0.5406   -7.2513 H         1 <0>         0.0000
     37 H9          0.0480    3.6439   -4.7999 H         1 <0>         0.0000
     38 H10         2.6645    3.4925   -9.0503 H         1 <0>         0.0000
     39 H11         1.3450   -0.1460    0.4769 H         1 <0>         0.0000
     40 H12         2.6594   -1.1966   -0.0750 H         1 <0>         0.0000
     41 H13         1.0406   -2.9378   -0.7458 H         1 <0>         0.0000
     42 H14         0.4393   -2.4233    0.8343 H         1 <0>         0.0000
     43 H15         1.7534    0.6625   -1.8235 H         1 <0>         0.0000
     44 H16         1.9445   -0.9846   -2.3977 H         1 <0>         0.0000
     45 H17        -1.1807   -2.3492   -1.4190 H         1 <0>         0.0000
     46 H18        -1.3224   -1.1036   -0.1816 H         1 <0>         0.0000
     47 H19        -0.6121    0.4780   -1.6477 H         1 <0>         0.0000
     48 H20         1.7246    4.7929   -5.8902 H         1 <0>         0.0000
     49 H21         0.2408    4.6887   -6.8511 H         1 <0>         0.0000
     50 H22         0.8545   -2.0880   -3.5935 H         1 <0>         0.0000
@<TRIPOS>BOND
     1    1    2 ar
     2    1    3 ar
     3    1   29 1
     4    2    7 ar
     5    2   30 1
     6    3   11 ar
     7    3   31 1
     8    4   10 ar
     9    4   11 ar
    10    4   32 1
    11    5    8 ar
    12    5   12 ar
    13    5   33 1
    14    6    9 ar
    15    6   12 ar
    16    6   34 1
    17    7   13 ar
    18    7   35 1
    19    8   14 ar
    20    8   36 1
    21    9   14 ar
    22    9   37 1
    23   10   15 ar
    24   10   38 1
    25   11   13 ar
    26   12   23 1
    27   13   24 ar
    28   14   28 1
    29   15   22 1
    30   15   24 ar
    31   16   23 1
    32   16   25 1
    33   16   26 2
    34   17   18 1
    35   17   19 1
    36   17   39 1
    37   17   40 1
    38   18   20 1
    39   18   41 1
    40   18   42 1
    41   19   21 1
    42   19   43 1
    43   19   44 1
    44   20   21 1
    45   20   45 1
    46   20   46 1
    47   21   23 1
    48   21   47 1
    49   22   28 1
    50   22   48 1
    51   22   49 1
    52   23   27 1
    53   27   50 1
