@<TRIPOS>MOLECULE
*****
   43    46     0     0     0
SMALL
NO_CHARGES

@<TRIPOS>ATOM
      1 C1          4.5627    0.0560    3.1306 C.ar      1 <0>         0.0000
      2 C2          5.2803    0.4154    4.2527 C.ar      1 <0>         0.0000
      3 C3          7.1308    1.1991    2.8621 C.ar      1 <0>         0.0000
      4 C4          6.1185    0.6283   -0.6869 C.ar      1 <0>         0.0000
      5 C5          6.3945    0.8315    1.7076 C.ar      1 <0>         0.0000
      6 C6          5.0946    0.2523    1.8279 C.ar      1 <0>         0.0000
      7 C7          6.8946    1.0118    0.3846 C.ar      1 <0>         0.0000
      8 C8          6.5605    0.9845    4.0928 C.ar      1 <0>         0.0000
      9 C9          4.8350    0.0574   -0.4522 C.ar      1 <0>         0.0000
     10 C10        -0.9820   -1.6808   -3.1651 C.3       1 <0>         0.0000
     11 C11        -1.3388   -0.6496   -1.0301 C.3       1 <0>         0.0000
     12 C12         1.7255   -0.7339   -0.6237 C.3       1 <0>         0.0000
     13 C13         2.0549   -1.6149   -2.5132 C.3       1 <0>         0.0000
     14 C14        -2.2081   -0.9454   -3.6970 C.3       1 <0>         0.0000
     15 C15        -2.5570    0.0643   -1.6072 C.3       1 <0>         0.0000
     16 C16         0.8260   -1.5576   -1.5747 C.3       1 <0>         0.0000
     17 C17         3.9896   -0.3140   -1.6555 C.3       1 <0>         0.0000
     18 N1          4.3354   -0.1227    0.7537 N.ar      1 <0>         0.0000
     19 N2         -0.3599   -0.9008   -2.0919 N.3       1 <0>         0.0000
     20 N3          2.9106   -1.2308   -1.3664 N.3       1 <0>         0.0000
     21 O1         -3.1545   -0.6909   -2.6603 O.3       1 <0>         0.0000
     22 O2          8.1387    1.5604    0.2658 O.3       1 <0>         0.0000
     23 F1          7.2450    1.3289    5.2150 F         1 <0>         0.0000
     24 H1          3.5752   -0.3875    3.2122 H         1 <0>         0.0000
     25 H2          4.8868    0.2708    5.2544 H         1 <0>         0.0000
     26 H3          8.1184    1.6384    2.7769 H         1 <0>         0.0000
     27 H4          6.4765    0.7499   -1.7080 H         1 <0>         0.0000
     28 H5         -1.2837   -2.6857   -2.8128 H         1 <0>         0.0000
     29 H6         -0.2582   -1.8143   -3.9771 H         1 <0>         0.0000
     30 H7         -0.8788   -0.0198   -0.2606 H         1 <0>         0.0000
     31 H8         -1.6630   -1.5912   -0.5474 H         1 <0>         0.0000
     32 H9          1.5566    0.3459   -0.7607 H         1 <0>         0.0000
     33 H10         1.7315   -0.9722    0.4408 H         1 <0>         0.0000
     34 H11         2.3181   -2.5715   -2.9783 H         1 <0>         0.0000
     35 H12         1.9832   -0.8318   -3.2859 H         1 <0>         0.0000
     36 H13        -1.8952    0.0040   -4.1585 H         1 <0>         0.0000
     37 H14        -2.7264   -1.5493   -4.4466 H         1 <0>         0.0000
     38 H15        -3.3283    0.1919   -0.8432 H         1 <0>         0.0000
     39 H16        -2.2586    1.0557   -1.9816 H         1 <0>         0.0000
     40 H17         0.5990   -2.5514   -1.1512 H         1 <0>         0.0000
     41 H18         3.6193    0.6308   -2.1084 H         1 <0>         0.0000
     42 H19         4.6366   -0.7794   -2.4097 H         1 <0>         0.0000
     43 H20         8.3695    1.6316   -0.6749 H         1 <0>         0.0000
@<TRIPOS>BOND
     1    1    2 ar
     2    1    6 ar
     3    1   24 1
     4    2    8 ar
     5    2   25 1
     6    3    5 ar
     7    3    8 ar
     8    3   26 1
     9    4    7 ar
    10    4    9 ar
    11    4   27 1
    12    5    6 ar
    13    5    7 ar
    14    6   18 ar
    15    7   22 1
    16    8   23 1
    17    9   17 1
    18    9   18 ar
    19   10   14 1
    20   10   19 1
    21   10   28 1
    22   10   29 1
    23   11   15 1
    24   11   19 1
    25   11   30 1
    26   11   31 1
    27   12   16 1
    28   12   20 1
    29   12   32 1
    30   12   33 1
    31   13   16 1
    32   13   20 1
    33   13   34 1
    34   13   35 1
    35   14   21 1
    36   14   36 1
    37   14   37 1
    38   15   21 1
    39   15   38 1
    40   15   39 1
    41   16   19 1
    42   16   40 1
    43   17   20 1
    44   17   41 1
    45   17   42 1
    46   22   43 1
