@<TRIPOS>MOLECULE
*****
   55    57     0     0     0
SMALL
NO_CHARGES

@<TRIPOS>ATOM
      1 C1         -6.6539    5.5234   10.5020 C.ar      1 <0>         0.0000
      2 C2         -6.2963    7.8870   10.9082 C.ar      1 <0>         0.0000
      3 C3         -7.5031    5.4697   11.6141 C.ar      1 <0>         0.0000
      4 C4         -7.1405    7.8328   12.0133 C.ar      1 <0>         0.0000
      5 C5         -6.0459    6.7350   10.1444 C.ar      1 <0>         0.0000
      6 C6         -7.7424    6.6190   12.3621 C.ar      1 <0>         0.0000
      7 C7         -3.6250    4.1956    0.1001 C.3       1 <0>         0.0000
      8 C8         -3.2065    5.3622    1.0015 C.3       1 <0>         0.0000
      9 C9         -4.1441    3.0340    0.9552 C.3       1 <0>         0.0000
     10 C10        -2.2245    4.9036    2.0823 C.3       1 <0>         0.0000
     11 C11        -3.1248    2.6547    2.0310 C.3       1 <0>         0.0000
     12 C12        -1.1869    3.9263    6.3431 C.3       1 <0>         0.0000
     13 C13        -1.6216    4.5141    4.9951 C.3       1 <0>         0.0000
     14 C14        -3.6374    4.9457    6.2455 C.3       1 <0>         0.0000
     15 C15        -4.8676    4.3258    5.5723 C.3       1 <0>         0.0000
     16 C16        -2.6636    6.7363    7.7865 C.3       1 <0>         0.0000
     17 C17        -4.5993    7.3021    6.3029 C.3       1 <0>         0.0000
     18 C18        -1.9303    3.3989    3.9769 C.3       1 <0>         0.0000
     19 C19        -4.9273    5.7578    8.2625 C.3       1 <0>         0.0000
     20 C20        -3.9543    6.1853    7.1528 C.3       1 <0>         0.0000
     21 N1         -2.7855    3.8050    2.8728 N.3       1 <0>         0.0000
     22 O1         -2.7115    5.3958    5.2596 O.3       1 <0>         0.0000
     23 O2         -5.2031    6.8973    9.0833 O.3       1 <0>         0.0000
     24 S1         -2.7576    3.5679    7.1988 S.3       1 <0>         0.0000
     25 Cl1        -8.8103    6.5475   13.7591 Cl        1 <0>         0.0000
     26 H1         -6.4781    4.6173    9.9345 H         1 <0>         0.0000
     27 H2         -5.8187    8.8186   10.6198 H         1 <0>         0.0000
     28 H3         -7.9734    4.5316   11.8922 H         1 <0>         0.0000
     29 H4         -7.3318    8.7248   12.6016 H         1 <0>         0.0000
     30 H5         -2.7583    3.8574   -0.4848 H         1 <0>         0.0000
     31 H6         -4.3869    4.5169   -0.6192 H         1 <0>         0.0000
     32 H7         -2.7465    6.1639    0.4123 H         1 <0>         0.0000
     33 H8         -4.0912    5.7836    1.4939 H         1 <0>         0.0000
     34 H9         -5.0804    3.3270    1.4455 H         1 <0>         0.0000
     35 H10        -4.3591    2.1574    0.3331 H         1 <0>         0.0000
     36 H11        -1.2660    4.6022    1.6103 H         1 <0>         0.0000
     37 H12        -2.0119    5.7408    2.7510 H         1 <0>         0.0000
     38 H13        -3.5350    1.8687    2.6753 H         1 <0>         0.0000
     39 H14        -2.2194    2.2338    1.5466 H         1 <0>         0.0000
     40 H15        -0.6236    2.9972    6.2246 H         1 <0>         0.0000
     41 H16        -0.5905    4.6423    6.9130 H         1 <0>         0.0000
     42 H17        -0.8324    5.1628    4.6035 H         1 <0>         0.0000
     43 H18        -4.5462    3.5920    4.8349 H         1 <0>         0.0000
     44 H19        -5.4444    5.0901    5.0463 H         1 <0>         0.0000
     45 H20        -5.5166    3.8305    6.2998 H         1 <0>         0.0000
     46 H21        -2.8975    7.6028    8.4086 H         1 <0>         0.0000
     47 H22        -2.1771    5.9882    8.4185 H         1 <0>         0.0000
     48 H23        -1.9642    7.0487    7.0076 H         1 <0>         0.0000
     49 H24        -4.6998    8.2085    6.9046 H         1 <0>         0.0000
     50 H25        -5.5992    7.0314    5.9521 H         1 <0>         0.0000
     51 H26        -3.9762    7.5270    5.4342 H         1 <0>         0.0000
     52 H27        -2.4263    2.5721    4.4961 H         1 <0>         0.0000
     53 H28        -0.9501    3.0135    3.6259 H         1 <0>         0.0000
     54 H29        -4.4804    4.9644    8.8741 H         1 <0>         0.0000
     55 H30        -5.8690    5.3909    7.8378 H         1 <0>         0.0000
@<TRIPOS>BOND
     1    1    3 ar
     2    1    5 ar
     3    1   26 1
     4    2    4 ar
     5    2    5 ar
     6    2   27 1
     7    3    6 ar
     8    3   28 1
     9    4    6 ar
    10    4   29 1
    11    5   23 1
    12    6   25 1
    13    7    9 1
    14    7    8 1
    15    7   30 1
    16    7   31 1
    17    8   10 1
    18    8   32 1
    19    8   33 1
    20    9   11 1
    21    9   34 1
    22    9   35 1
    23   10   21 1
    24   10   36 1
    25   10   37 1
    26   11   21 1
    27   11   38 1
    28   11   39 1
    29   12   13 1
    30   12   24 1
    31   12   40 1
    32   12   41 1
    33   13   18 1
    34   13   22 1
    35   13   42 1
    36   14   15 1
    37   14   20 1
    38   14   22 1
    39   14   24 1
    40   15   43 1
    41   15   44 1
    42   15   45 1
    43   16   20 1
    44   16   46 1
    45   16   47 1
    46   16   48 1
    47   17   20 1
    48   17   49 1
    49   17   50 1
    50   17   51 1
    51   18   21 1
    52   18   52 1
    53   18   53 1
    54   19   20 1
    55   19   23 1
    56   19   54 1
    57   19   55 1
