@<TRIPOS>MOLECULE
*****
   74    77     0     0     0
SMALL
NO_CHARGES

@<TRIPOS>ATOM
      1 C1          5.4054   -5.0468    6.0188 C.ar      1 <0>         0.0000
      2 C2          4.7670   -4.0590    6.7777 C.ar      1 <0>         0.0000
      3 C3          6.6469   -4.7690    5.4376 C.ar      1 <0>         0.0000
      4 C4         -8.2231   -2.3258   -3.1633 C.ar      1 <0>         0.0000
      5 C5         -8.2375   -1.7159   -4.4198 C.ar      1 <0>         0.0000
      6 C6          5.3597   -2.8068    6.9437 C.ar      1 <0>         0.0000
      7 C7          7.2413   -3.5164    5.6133 C.ar      1 <0>         0.0000
      8 C8          7.1785    2.3463    5.6993 C.ar      1 <0>         0.0000
      9 C9          7.5062    1.6308    7.9712 C.ar      1 <0>         0.0000
     10 C10         4.2076    0.8220    6.0740 C.ar      1 <0>         0.0000
     11 C11         5.0170   -0.7328    4.4308 C.ar      1 <0>         0.0000
     12 C12         7.6629    3.6127    6.0148 C.ar      1 <0>         0.0000
     13 C13         7.9856    2.8996    8.3072 C.ar      1 <0>         0.0000
     14 C14         2.9685    0.8543    5.4449 C.ar      1 <0>         0.0000
     15 C15         3.7814   -0.7045    3.7784 C.ar      1 <0>         0.0000
     16 C16        -6.9943   -2.5782   -2.5535 C.ar      1 <0>         0.0000
     17 C17        -7.0149   -1.3826   -5.0096 C.ar      1 <0>         0.0000
     18 C18         7.1068    1.3225    6.6625 C.ar      1 <0>         0.0000
     19 C19         5.2539    0.0104    5.5946 C.ar      1 <0>         0.0000
     20 C20         6.6018   -2.5090    6.3557 C.ar      1 <0>         0.0000
     21 C21         8.0713    3.8931    7.3255 C.ar      1 <0>         0.0000
     22 C22         2.7436    0.0850    4.2921 C.ar      1 <0>         0.0000
     23 C23        -5.8239   -2.2018   -3.2275 C.ar      1 <0>         0.0000
     24 C24         6.5686   -0.0181    6.2965 C.2       1 <0>         0.0000
     25 C25         7.2353   -1.1741    6.5586 C.2       1 <0>         0.0000
     26 C26         8.7638   -1.8268    8.4978 C.3       1 <0>         0.0000
     27 C27        -4.4667   -2.4309   -2.6155 C.3       1 <0>         0.0000
     28 C28         8.6552   -1.2181    7.0892 C.3       1 <0>         0.0000
     29 C29        -0.6464   -1.1268    0.9389 C.3       1 <0>         0.0000
     30 C30        -0.2403   -0.3379    2.1887 C.3       1 <0>         0.0000
     31 C31        -2.1094   -0.8820    0.5468 C.3       1 <0>         0.0000
     32 C32         1.2084   -0.5951    2.5771 C.3       1 <0>         0.0000
     33 C33        -2.4891   -1.6716   -0.7064 C.3       1 <0>         0.0000
     34 N1         -5.8278   -1.6134   -4.4337 N.ar      1 <0>         0.0000
     35 O1         -5.0729   -1.9149   -0.0568 O.2       1 <0>         0.0000
     36 O2         -4.3670    0.0439   -1.5352 O.2       1 <0>         0.0000
     37 O3          8.5355    5.1603    7.5882 O.3       1 <0>         0.0000
     38 O4          1.4926    0.1805    3.7422 O.3       1 <0>         0.0000
     39 S1         -4.2305   -1.3662   -1.1387 S.o2      1 <0>         0.0000
     40 H1          4.9440   -6.0222    5.8869 H         1 <0>         0.0000
     41 H2          3.8058   -4.2652    7.2420 H         1 <0>         0.0000
     42 H3          7.1537   -5.5279    4.8464 H         1 <0>         0.0000
     43 H4         -9.1502   -2.5978   -2.6657 H         1 <0>         0.0000
     44 H5         -9.1696   -1.4998   -4.9339 H         1 <0>         0.0000
     45 H6          4.8567   -2.0424    7.5283 H         1 <0>         0.0000
     46 H7          8.2022   -3.3141    5.1472 H         1 <0>         0.0000
     47 H8          6.8499    2.1407    4.6842 H         1 <0>         0.0000
     48 H9          7.4272    0.8728    8.7446 H         1 <0>         0.0000
     49 H10         4.3694    1.4304    6.9598 H         1 <0>         0.0000
     50 H11         5.8106   -1.3512    4.0240 H         1 <0>         0.0000
     51 H12         7.7269    4.3953    5.2644 H         1 <0>         0.0000
     52 H13         8.2827    3.1148    9.3329 H         1 <0>         0.0000
     53 H14         2.1593    1.4707    5.8260 H         1 <0>         0.0000
     54 H15         3.6457   -1.2964    2.8804 H         1 <0>         0.0000
     55 H16        -6.9329   -3.0307   -1.5689 H         1 <0>         0.0000
     56 H17        -6.9853   -0.9066   -5.9884 H         1 <0>         0.0000
     57 H18         8.3639   -2.8451    8.5199 H         1 <0>         0.0000
     58 H19         8.2021   -1.2352    9.2284 H         1 <0>         0.0000
     59 H20         9.8087   -1.8641    8.8240 H         1 <0>         0.0000
     60 H21        -3.6912   -2.1661   -3.3360 H         1 <0>         0.0000
     61 H22        -4.3344   -3.4555   -2.2580 H         1 <0>         0.0000
     62 H23         9.0961   -0.2199    7.0765 H         1 <0>         0.0000
     63 H24         9.2599   -1.8298    6.4070 H         1 <0>         0.0000
     64 H25         0.0076   -0.8501    0.1011 H         1 <0>         0.0000
     65 H26        -0.4901   -2.1997    1.1143 H         1 <0>         0.0000
     66 H27        -0.8858   -0.6090    3.0318 H         1 <0>         0.0000
     67 H28        -0.3757    0.7359    2.0167 H         1 <0>         0.0000
     68 H29        -2.7695   -1.1730    1.3700 H         1 <0>         0.0000
     69 H30        -2.2721    0.1846    0.3624 H         1 <0>         0.0000
     70 H31         1.3688   -1.6613    2.7902 H         1 <0>         0.0000
     71 H32         1.8853   -0.3055    1.7610 H         1 <0>         0.0000
     72 H33        -1.8959   -1.3661   -1.5734 H         1 <0>         0.0000
     73 H34        -2.3877   -2.7504   -0.5531 H         1 <0>         0.0000
     74 H35         8.7796    5.2192    8.5254 H         1 <0>         0.0000
@<TRIPOS>BOND
     1    1    3 ar
     2    1    2 ar
     3    1   40 1
     4    2    6 ar
     5    2   41 1
     6    3    7 ar
     7    3   42 1
     8    4    5 ar
     9    4   16 ar
    10    4   43 1
    11    5   17 ar
    12    5   44 1
    13    6   20 ar
    14    6   45 1
    15    7   20 ar
    16    7   46 1
    17    8   12 ar
    18    8   18 ar
    19    8   47 1
    20    9   13 ar
    21    9   18 ar
    22    9   48 1
    23   10   14 ar
    24   10   19 ar
    25   10   49 1
    26   11   15 ar
    27   11   19 ar
    28   11   50 1
    29   12   21 ar
    30   12   51 1
    31   13   21 ar
    32   13   52 1
    33   14   22 ar
    34   14   53 1
    35   15   22 ar
    36   15   54 1
    37   16   23 ar
    38   16   55 1
    39   17   34 ar
    40   17   56 1
    41   18   24 1
    42   19   24 1
    43   20   25 1
    44   21   37 1
    45   22   38 1
    46   23   27 1
    47   23   34 ar
    48   24   25 2
    49   25   28 1
    50   26   28 1
    51   26   57 1
    52   26   58 1
    53   26   59 1
    54   27   39 1
    55   27   60 1
    56   27   61 1
    57   28   62 1
    58   28   63 1
    59   29   30 1
    60   29   31 1
    61   29   64 1
    62   29   65 1
    63   30   32 1
    64   30   66 1
    65   30   67 1
    66   31   33 1
    67   31   68 1
    68   31   69 1
    69   32   38 1
    70   32   70 1
    71   32   71 1
    72   33   39 1
    73   33   72 1
    74   33   73 1
    75   35   39 2
    76   36   39 2
    77   37   74 1
