@<TRIPOS>MOLECULE
*****
   39    41     0     0     0
SMALL
NO_CHARGES

@<TRIPOS>ATOM
      1 C1         -5.2377   -1.3869    5.8014 C.ar      1 <0>         0.0000
      2 C2         -5.0617   -2.2265    6.9119 C.ar      1 <0>         0.0000
      3 C3         -4.7728   -1.7617    4.5364 C.ar      1 <0>         0.0000
      4 C4         -4.4150   -3.4625    6.7845 C.ar      1 <0>         0.0000
      5 C5         -5.2663   -8.4034    0.7520 C.2       1 <0>         0.0000
      6 C6         -4.1362   -2.9943    4.4023 C.ar      1 <0>         0.0000
      7 C7         -4.2852   -7.8964    1.6675 C.2       1 <0>         0.0000
      8 C8         -3.9770   -3.8159    5.5156 C.ar      1 <0>         0.0000
      9 C9         -4.9896   -9.7295    0.5258 C.2       1 <0>         0.0000
     10 C10        -3.4397   -8.9596    2.0054 C.2       1 <0>         0.0000
     11 C11        -3.5944   -3.5710    3.1376 C.2       1 <0>         0.0000
     12 C12        -4.2645   -6.5150    2.1443 C.2       1 <0>         0.0000
     13 C13        -5.6762  -10.7163   -0.3651 C.3       1 <0>         0.0000
     14 C14        -2.3506   -9.0737    3.0318 C.3       1 <0>         0.0000
     15 C15        -3.3115  -11.3966    1.4155 C.3       1 <0>         0.0000
     16 C16        -2.8943   -5.8508    2.4090 C.3       1 <0>         0.0000
     17 N1         -3.8728  -10.0593    1.2977 N.pl3     1 <0>         0.0000
     18 N2         -2.9880   -4.8050    3.4163 N.am      1 <0>         0.0000
     19 O1         -3.6278   -3.0581    2.0346 O.2       1 <0>         0.0000
     20 O2         -5.2715   -5.8212    2.2292 O.2       1 <0>         0.0000
     21 O3         -1.7587   -5.3040    5.6631 O.2       1 <0>         0.0000
     22 O4         -3.8973   -6.5192    5.1431 O.2       1 <0>         0.0000
     23 S1         -3.0925   -5.2980    5.0626 S.o2      1 <0>         0.0000
     24 H1         -5.7428   -0.4336    5.9288 H         1 <0>         0.0000
     25 H2         -5.4316   -1.9160    7.8849 H         1 <0>         0.0000
     26 H3         -4.8996   -1.1264    3.6651 H         1 <0>         0.0000
     27 H4         -4.2702   -4.1163    7.6390 H         1 <0>         0.0000
     28 H5         -6.0622   -7.8246    0.3032 H         1 <0>         0.0000
     29 H6         -5.0187  -11.0926   -1.1589 H         1 <0>         0.0000
     30 H7         -6.0608  -11.5822    0.1874 H         1 <0>         0.0000
     31 H8         -6.5266  -10.2288   -0.8470 H         1 <0>         0.0000
     32 H9         -2.5059   -8.3532    3.8361 H         1 <0>         0.0000
     33 H10        -2.3517  -10.0632    3.4980 H         1 <0>         0.0000
     34 H11        -1.3507   -8.9149    2.6076 H         1 <0>         0.0000
     35 H12        -2.2209  -11.3511    1.4424 H         1 <0>         0.0000
     36 H13        -3.6682  -11.9033    2.3198 H         1 <0>         0.0000
     37 H14        -3.6035  -11.9901    0.5492 H         1 <0>         0.0000
     38 H15        -2.5946   -5.3649    1.4752 H         1 <0>         0.0000
     39 H16        -2.1067   -6.5518    2.6794 H         1 <0>         0.0000
@<TRIPOS>BOND
     1    1    2 ar
     2    1    3 ar
     3    1   24 1
     4    2    4 ar
     5    2   25 1
     6    3    6 ar
     7    3   26 1
     8    4    8 ar
     9    4   27 1
    10    5    7 1
    11    5    9 2
    12    5   28 1
    13    6    8 ar
    14    6   11 1
    15    7   10 2
    16    7   12 1
    17    8   23 1
    18    9   13 1
    19    9   17 1
    20   10   14 1
    21   10   17 1
    22   11   18 am
    23   11   19 2
    24   12   16 1
    25   12   20 2
    26   13   29 1
    27   13   30 1
    28   13   31 1
    29   14   32 1
    30   14   33 1
    31   14   34 1
    32   15   17 1
    33   15   35 1
    34   15   36 1
    35   15   37 1
    36   16   18 1
    37   16   38 1
    38   16   39 1
    39   18   23 1
    40   21   23 2
    41   22   23 2
