@<TRIPOS>MOLECULE
*****
   52    55     0     0     0
SMALL
NO_CHARGES

@<TRIPOS>ATOM
      1 C1         -6.0189   -1.0067   -3.3009 C.ar      1 <0>         0.0000
      2 C2         -5.0056   -0.4944   -4.1198 C.ar      1 <0>         0.0000
      3 C3         -5.7197   -1.9776   -2.3404 C.ar      1 <0>         0.0000
      4 C4         -3.6942   -0.9495   -3.9720 C.ar      1 <0>         0.0000
      5 C5         -4.4048   -2.4268   -2.1861 C.ar      1 <0>         0.0000
      6 C6         -2.2016    1.4749   -1.0198 C.ar      1 <0>         0.0000
      7 C7         -1.0870    3.2552    0.1833 C.ar      1 <0>         0.0000
      8 C8         -1.3711    0.5383   -0.3787 C.ar      1 <0>         0.0000
      9 C9         -3.3850   -1.9123   -2.9979 C.ar      1 <0>         0.0000
     10 C10        -0.2647    2.3429    0.8421 C.ar      1 <0>         0.0000
     11 C11        -0.4118    0.9700    0.5461 C.ar      1 <0>         0.0000
     12 C12        -2.0475    2.8258   -0.7440 C.ar      1 <0>         0.0000
     13 C13         3.5586   -1.4927    1.1046 C.3       1 <0>         0.0000
     14 C14         2.9943   -0.6286   -0.0277 C.3       1 <0>         0.0000
     15 C15         2.5848   -1.5420    2.2869 C.3       1 <0>         0.0000
     16 C16         1.6036   -1.1089   -0.4730 C.3       1 <0>         0.0000
     17 C17         1.2033   -2.0398    1.8462 C.3       1 <0>         0.0000
     18 C18        -0.7592   -1.8085    0.3011 C.3       1 <0>         0.0000
     19 C19        -1.5566   -0.9265   -0.6555 C.3       1 <0>         0.0000
     20 C20         0.6039   -1.2165    0.6987 C.3       1 <0>         0.0000
     21 C21         0.7616    2.7836    1.8530 C.3       1 <0>         0.0000
     22 C22        -1.9568   -2.3382   -2.8015 C.3       1 <0>         0.0000
     23 N1         -1.1702   -1.2187   -2.1260 N.4       1 <0>         0.0000
     24 O1          0.3917    0.1127    1.2416 O.3       1 <0>         0.0000
     25 Cl1        -3.0700    3.9989   -1.5411 Cl        1 <0>         0.0000
     26 H1         -7.0402   -0.6566   -3.4192 H         1 <0>         0.0000
     27 H2         -5.2391    0.2480   -4.8772 H         1 <0>         0.0000
     28 H3         -6.5070   -2.3848   -1.7131 H         1 <0>         0.0000
     29 H4         -2.9183   -0.5662   -4.6341 H         1 <0>         0.0000
     30 H5         -4.1779   -3.1860   -1.4406 H         1 <0>         0.0000
     31 H6         -2.9831    1.1447   -1.7019 H         1 <0>         0.0000
     32 H7         -0.9857    4.3160    0.3917 H         1 <0>         0.0000
     33 H8          4.5274   -1.0975    1.4260 H         1 <0>         0.0000
     34 H9          3.7419   -2.5107    0.7344 H         1 <0>         0.0000
     35 H10         2.9156    0.4112    0.3083 H         1 <0>         0.0000
     36 H11         3.6669   -0.6321   -0.8916 H         1 <0>         0.0000
     37 H12         2.9680   -2.1998    3.0733 H         1 <0>         0.0000
     38 H13         2.4860   -0.5441    2.7276 H         1 <0>         0.0000
     39 H14         1.2307   -0.4021   -1.2265 H         1 <0>         0.0000
     40 H15         1.6941   -2.0992   -0.9436 H         1 <0>         0.0000
     41 H16         1.2793   -3.0813    1.5080 H         1 <0>         0.0000
     42 H17         0.5017   -2.0241    2.6868 H         1 <0>         0.0000
     43 H18        -1.3589   -1.9148    1.2103 H         1 <0>         0.0000
     44 H19        -0.6263   -2.8184   -0.1021 H         1 <0>         0.0000
     45 H20        -2.6169   -1.1807   -0.6173 H         1 <0>         0.0000
     46 H21         0.5372    2.3695    2.8412 H         1 <0>         0.0000
     47 H22         1.7593    2.4260    1.5800 H         1 <0>         0.0000
     48 H23         0.7913    3.8719    1.9322 H         1 <0>         0.0000
     49 H24        -1.8643   -3.2182   -2.1636 H         1 <0>         0.0000
     50 H25        -1.4461   -2.5354   -3.7475 H         1 <0>         0.0000
     51 H26        -1.3200   -0.3535   -2.6579 H         1 <0>         0.0000
     52 H27        -0.1634   -1.4113   -2.1671 H         1 <0>         0.0000
@<TRIPOS>BOND
     1    1    3 ar
     2    1    2 ar
     3    1   26 1
     4    2    4 ar
     5    2   27 1
     6    3    5 ar
     7    3   28 1
     8    4    9 ar
     9    4   29 1
    10    5    9 ar
    11    5   30 1
    12    6    8 ar
    13    6   12 ar
    14    6   31 1
    15    7   10 ar
    16    7   12 ar
    17    7   32 1
    18    8   11 ar
    19    8   19 1
    20    9   22 1
    21   10   11 ar
    22   10   21 1
    23   11   24 1
    24   12   25 1
    25   13   15 1
    26   13   14 1
    27   13   33 1
    28   13   34 1
    29   14   16 1
    30   14   35 1
    31   14   36 1
    32   15   17 1
    33   15   37 1
    34   15   38 1
    35   16   20 1
    36   16   39 1
    37   16   40 1
    38   17   20 1
    39   17   41 1
    40   17   42 1
    41   18   19 1
    42   18   20 1
    43   18   43 1
    44   18   44 1
    45   19   23 1
    46   19   45 1
    47   20   24 1
    48   21   46 1
    49   21   47 1
    50   21   48 1
    51   22   23 1
    52   22   49 1
    53   22   50 1
    54   23   51 1
    55   23   52 1
