@<TRIPOS>MOLECULE
*****
   17    17     0     0     0
SMALL
NO_CHARGES

@<TRIPOS>ATOM
      1 C1          1.4773   -4.1200    0.9626 C.1       1 <0>         0.0000
      2 C2         -0.1566   -0.8402    0.5546 C.2       1 <0>         0.0000
      3 C3         -1.3193    0.7803    1.5983 C.2       1 <0>         0.0000
      4 C4         -0.7505   -2.9764   -0.6851 C.3       1 <0>         0.0000
      5 C5          0.3120   -2.1511    0.0445 C.3       1 <0>         0.0000
      6 N1          1.9790   -5.1531    0.7237 N.1       1 <0>         0.0000
      7 N2         -0.1783    1.3015    1.0457 N.2       1 <0>         0.0000
      8 N3          0.5142    0.2861    0.4214 N.2       1 <0>         0.0000
      9 N4         -1.3110   -0.6068    1.2728 N.am      1 <0>         0.0000
     10 N5          0.8350   -2.9714    1.2160 N.3       1 <0>         0.0000
     11 O1         -2.2303    1.3243    2.2607 O.2       1 <0>         0.0000
     12 H1         -1.6026   -3.1815   -0.0294 H         1 <0>         0.0000
     13 H2         -1.1078   -2.4169   -1.5541 H         1 <0>         0.0000
     14 H3         -0.3455   -3.9350   -1.0271 H         1 <0>         0.0000
     15 H4          1.1490   -1.9347   -0.6285 H         1 <0>         0.0000
     16 H5         -2.0072   -1.2671    1.5853 H         1 <0>         0.0000
     17 H6          1.2987   -2.3791    1.8999 H         1 <0>         0.0000
@<TRIPOS>BOND
     1    1    6 3
     2    1   10 1
     3    2    5 1
     4    2    8 2
     5    2    9 1
     6    3    7 1
     7    3    9 am
     8    3   11 2
     9    4    5 1
    10    4   12 1
    11    4   13 1
    12    4   14 1
    13    5   10 1
    14    5   15 1
    15    7    8 1
    16    9   16 1
    17   10   17 1
