@<TRIPOS>MOLECULE
*****
   47    50     0     0     0
SMALL
NO_CHARGES

@<TRIPOS>ATOM
      1 C1          4.3683    0.2608    3.9367 C.1       1 <0>         0.0000
      2 C2          7.8953    0.0052    5.0677 C.ar      1 <0>         0.0000
      3 C3          8.5469   -0.4064    3.8972 C.ar      1 <0>         0.0000
      4 C4          6.5173    0.1952    5.0493 C.ar      1 <0>         0.0000
      5 C5          7.8217   -0.6338    2.7319 C.ar      1 <0>         0.0000
      6 C6          6.1441   -0.7285    0.1214 C.2       1 <0>         0.0000
      7 C7          4.9848   -0.9970   -0.6711 C.2       1 <0>         0.0000
      8 C8          5.7766   -0.0196    3.8710 C.ar      1 <0>         0.0000
      9 C9          6.4258   -0.4485    2.6841 C.ar      1 <0>         0.0000
     10 C10         5.7256   -0.6901    1.4328 C.2       1 <0>         0.0000
     11 C11         3.9302   -1.1116    0.1969 C.2       1 <0>         0.0000
     12 C12         0.3375    2.2707   -0.7893 C.3       1 <0>         0.0000
     13 C13        -0.0473    0.9737   -1.5507 C.3       1 <0>         0.0000
     14 C14        -0.3937    1.5346    1.5478 C.3       1 <0>         0.0000
     15 C15         1.9488    0.9778    0.6629 C.3       1 <0>         0.0000
     16 C16        -0.6289   -0.6033    0.3729 C.3       1 <0>         0.0000
     17 C17         0.7794    1.9767    0.6540 C.3       1 <0>         0.0000
     18 C18         0.3778   -0.2748   -0.7619 C.3       1 <0>         0.0000
     19 C19        -2.3808    0.2079    1.8181 C.3       1 <0>         0.0000
     20 C20         2.4590   -1.3232    0.0242 C.3       1 <0>         0.0000
     21 N1          3.2421    0.5315    4.0671 N.1       1 <0>         0.0000
     22 N2         -1.3003    0.5766    0.9137 N.3       1 <0>         0.0000
     23 N3          1.7733   -0.0869   -0.3417 N.3       1 <0>         0.0000
     24 O1          4.3768   -0.9295    1.4788 O.3       1 <0>         0.0000
     25 H1          8.4567    0.1744    5.9817 H         1 <0>         0.0000
     26 H2          9.6221   -0.5637    3.8991 H         1 <0>         0.0000
     27 H3          5.9934    0.5222    5.9422 H         1 <0>         0.0000
     28 H4          8.3347   -0.9836    1.8414 H         1 <0>         0.0000
     29 H5          7.1508   -0.5566   -0.2357 H         1 <0>         0.0000
     30 H6          4.9283   -1.0759   -1.7486 H         1 <0>         0.0000
     31 H7          1.1653    2.7696   -1.3052 H         1 <0>         0.0000
     32 H8         -0.5037    2.9713   -0.7820 H         1 <0>         0.0000
     33 H9         -1.1253    0.9375   -1.7272 H         1 <0>         0.0000
     34 H10         0.4551    0.9499   -2.5226 H         1 <0>         0.0000
     35 H11         0.0150    1.1433    2.4993 H         1 <0>         0.0000
     36 H12        -0.9934    2.4178    1.8007 H         1 <0>         0.0000
     37 H13         2.8838    1.5080    0.4409 H         1 <0>         0.0000
     38 H14         2.0581    0.5648    1.6759 H         1 <0>         0.0000
     39 H15        -1.4103   -1.2514   -0.0409 H         1 <0>         0.0000
     40 H16        -0.1222   -1.1911    1.1636 H         1 <0>         0.0000
     41 H17         1.1615    2.9001    1.1044 H         1 <0>         0.0000
     42 H18         0.3802   -1.1347   -1.4417 H         1 <0>         0.0000
     43 H19        -3.0984   -0.4364    1.2990 H         1 <0>         0.0000
     44 H20        -2.9104    1.1085    2.1468 H         1 <0>         0.0000
     45 H21        -2.0288   -0.3274    2.7211 H         1 <0>         0.0000
     46 H22         2.3019   -2.0516   -0.7785 H         1 <0>         0.0000
     47 H23         2.0788   -1.7717    0.9594 H         1 <0>         0.0000
@<TRIPOS>BOND
     1    1    8 1
     2    1   21 3
     3    2    3 ar
     4    2    4 ar
     5    2   25 1
     6    3    5 ar
     7    3   26 1
     8    4    8 ar
     9    4   27 1
    10    5    9 ar
    11    5   28 1
    12    6    7 1
    13    6   10 2
    14    6   29 1
    15    7   11 2
    16    7   30 1
    17    8    9 ar
    18    9   10 1
    19   10   24 1
    20   11   20 1
    21   11   24 1
    22   12   13 1
    23   12   17 1
    24   12   31 1
    25   12   32 1
    26   13   18 1
    27   13   33 1
    28   13   34 1
    29   14   17 1
    30   14   22 1
    31   14   35 1
    32   14   36 1
    33   15   17 1
    34   15   23 1
    35   15   37 1
    36   15   38 1
    37   16   18 1
    38   16   22 1
    39   16   39 1
    40   16   40 1
    41   17   41 1
    42   18   23 1
    43   18   42 1
    44   19   22 1
    45   19   43 1
    46   19   44 1
    47   19   45 1
    48   20   23 1
    49   20   46 1
    50   20   47 1
