@<TRIPOS>MOLECULE
*****
   73    76     0     0     0
SMALL
NO_CHARGES

@<TRIPOS>ATOM
      1 C1         -5.1081    1.2712   -2.9412 C.ar      1 <0>         0.0000
      2 C2         -4.0226    2.0464   -2.5175 C.ar      1 <0>         0.0000
      3 C3         -6.4080    1.7546   -2.7601 C.ar      1 <0>         0.0000
      4 C4          5.1565   -3.6862   11.2709 C.ar      1 <0>         0.0000
      5 C5          6.2906   -4.2088   10.6439 C.ar      1 <0>         0.0000
      6 C6         -4.2371    3.2847   -1.9113 C.ar      1 <0>         0.0000
      7 C7         -6.6186    2.9992   -2.1607 C.ar      1 <0>         0.0000
      8 C8         -5.7113    7.0448    1.9789 C.ar      1 <0>         0.0000
      9 C9         -4.7746    7.9266   -0.0522 C.ar      1 <0>         0.0000
     10 C10        -3.2965    4.7511    1.6091 C.ar      1 <0>         0.0000
     11 C11        -5.0715    3.1725    1.2487 C.ar      1 <0>         0.0000
     12 C12        -5.7521    8.3225    2.5300 C.ar      1 <0>         0.0000
     13 C13        -4.7991    9.2147    0.4895 C.ar      1 <0>         0.0000
     14 C14        -2.6308    3.8363    2.4318 C.ar      1 <0>         0.0000
     15 C15        -4.4307    2.2558    2.0720 C.ar      1 <0>         0.0000
     16 C16         4.4530   -2.6644   10.6351 C.ar      1 <0>         0.0000
     17 C17         6.6655   -3.6777    9.4070 C.ar      1 <0>         0.0000
     18 C18        -5.2404    6.8195    0.6718 C.ar      1 <0>         0.0000
     19 C19        -4.5124    4.4385    0.9864 C.ar      1 <0>         0.0000
     20 C20        -5.5385    3.7782   -1.7120 C.ar      1 <0>         0.0000
     21 C21        -5.2955    9.4160    1.7821 C.ar      1 <0>         0.0000
     22 C22        -3.1990    2.5768    2.6654 C.ar      1 <0>         0.0000
     23 C23         4.9065   -2.1996    9.3904 C.ar      1 <0>         0.0000
     24 C24        -5.1945    5.4375    0.1152 C.2       1 <0>         0.0000
     25 C25        -5.7534    5.1123   -1.0813 C.2       1 <0>         0.0000
     26 C26        -6.0048    6.4592   -3.2368 C.3       1 <0>         0.0000
     27 C27         4.1702   -1.1170    8.6518 C.3       1 <0>         0.0000
     28 C28        -6.6203    6.0630   -1.8838 C.3       1 <0>         0.0000
     29 C29         0.3182    0.8578    5.6507 C.3       1 <0>         0.0000
     30 C30        -1.0107    0.6616    4.9125 C.3       1 <0>         0.0000
     31 C31         0.7096   -0.3695    6.4838 C.3       1 <0>         0.0000
     32 C32        -1.3968    1.8845    4.0936 C.3       1 <0>         0.0000
     33 C33         2.0364   -0.1699    7.2127 C.3       1 <0>         0.0000
     34 N1          5.9963   -2.6974    8.7854 N.ar      1 <0>         0.0000
     35 O1          2.7095   -2.7724    7.0401 O.2       1 <0>         0.0000
     36 O2         -5.3498   10.6565    2.3732 O.3       1 <0>         0.0000
     37 O3         -2.6450    1.6062    3.4566 O.3       1 <0>         0.0000
     38 S1          2.4909   -1.7193    8.1095 S.o       1 <0>         0.0000
     39 H1         -4.9428    0.3043   -3.4095 H         1 <0>         0.0000
     40 H2         -3.0072    1.6847   -2.6589 H         1 <0>         0.0000
     41 H3         -7.2596    1.1614   -3.0843 H         1 <0>         0.0000
     42 H4          4.8269   -4.0678   12.2338 H         1 <0>         0.0000
     43 H5          6.8719   -5.0066   11.0971 H         1 <0>         0.0000
     44 H6         -3.3917    3.8790   -1.5777 H         1 <0>         0.0000
     45 H7         -7.6357    3.3554   -2.0184 H         1 <0>         0.0000
     46 H8         -6.0542    6.1998    2.5698 H         1 <0>         0.0000
     47 H9         -4.3723    7.7788   -1.0499 H         1 <0>         0.0000
     48 H10        -2.8524    5.7294    1.4458 H         1 <0>         0.0000
     49 H11        -6.0229    2.9064    0.8000 H         1 <0>         0.0000
     50 H12        -6.1289    8.4920    3.5345 H         1 <0>         0.0000
     51 H13        -4.4250   10.0565   -0.0919 H         1 <0>         0.0000
     52 H14        -1.6858    4.1189    2.8817 H         1 <0>         0.0000
     53 H15        -4.8673    1.2820    2.2739 H         1 <0>         0.0000
     54 H16         3.5623   -2.2358   11.0873 H         1 <0>         0.0000
     55 H17         7.5442   -4.0572    8.8878 H         1 <0>         0.0000
     56 H18        -5.8065    5.5776   -3.8538 H         1 <0>         0.0000
     57 H19        -5.0552    6.9873   -3.0996 H         1 <0>         0.0000
     58 H20        -6.6813    7.1181   -3.7918 H         1 <0>         0.0000
     59 H21         3.9901   -0.2397    9.2823 H         1 <0>         0.0000
     60 H22         4.7263   -0.8386    7.7542 H         1 <0>         0.0000
     61 H23        -6.8469    6.9560   -1.2987 H         1 <0>         0.0000
     62 H24        -7.5821    5.5710   -2.0791 H         1 <0>         0.0000
     63 H25         1.1148    1.0696    4.9251 H         1 <0>         0.0000
     64 H26         0.2510    1.7393    6.3029 H         1 <0>         0.0000
     65 H27        -0.9456   -0.2054    4.2455 H         1 <0>         0.0000
     66 H28        -1.8127    0.4512    5.6295 H         1 <0>         0.0000
     67 H29        -0.0829   -0.5871    7.2110 H         1 <0>         0.0000
     68 H30         0.7950   -1.2471    5.8344 H         1 <0>         0.0000
     69 H31        -0.6310    2.1019    3.3359 H         1 <0>         0.0000
     70 H32        -1.4966    2.7677    4.7401 H         1 <0>         0.0000
     71 H33         2.8481    0.0373    6.5070 H         1 <0>         0.0000
     72 H34         1.9809    0.6386    7.9511 H         1 <0>         0.0000
     73 H35        -5.0104   11.3180    1.7498 H         1 <0>         0.0000
@<TRIPOS>BOND
     1    1    3 ar
     2    1    2 ar
     3    1   39 1
     4    2    6 ar
     5    2   40 1
     6    3    7 ar
     7    3   41 1
     8    4    5 ar
     9    4   16 ar
    10    4   42 1
    11    5   17 ar
    12    5   43 1
    13    6   20 ar
    14    6   44 1
    15    7   20 ar
    16    7   45 1
    17    8   12 ar
    18    8   18 ar
    19    8   46 1
    20    9   13 ar
    21    9   18 ar
    22    9   47 1
    23   10   14 ar
    24   10   19 ar
    25   10   48 1
    26   11   15 ar
    27   11   19 ar
    28   11   49 1
    29   12   21 ar
    30   12   50 1
    31   13   21 ar
    32   13   51 1
    33   14   22 ar
    34   14   52 1
    35   15   22 ar
    36   15   53 1
    37   16   23 ar
    38   16   54 1
    39   17   34 ar
    40   17   55 1
    41   18   24 1
    42   19   24 1
    43   20   25 1
    44   21   36 1
    45   22   37 1
    46   23   27 1
    47   23   34 ar
    48   24   25 2
    49   25   28 1
    50   26   28 1
    51   26   56 1
    52   26   57 1
    53   26   58 1
    54   27   38 1
    55   27   59 1
    56   27   60 1
    57   28   61 1
    58   28   62 1
    59   29   30 1
    60   29   31 1
    61   29   63 1
    62   29   64 1
    63   30   32 1
    64   30   65 1
    65   30   66 1
    66   31   33 1
    67   31   67 1
    68   31   68 1
    69   32   37 1
    70   32   69 1
    71   32   70 1
    72   33   38 1
    73   33   71 1
    74   33   72 1
    75   35   38 2
    76   36   73 1
