@<TRIPOS>MOLECULE
*****
   28    29     0     0     0
SMALL
NO_CHARGES

@<TRIPOS>ATOM
      1 C1          4.4108   -0.0953   -0.4834 C.ar      1 <0>         0.0000
      2 C2          4.4610    0.7629   -1.5808 C.ar      1 <0>         0.0000
      3 C3          2.1810    1.1029   -1.6371 C.ar      1 <0>         0.0000
      4 C4          1.3331   -1.0612    1.1914 C.2       1 <0>         0.0000
      5 C5          1.9827    0.2265   -0.5507 C.ar      1 <0>         0.0000
      6 C6          0.8362   -0.2391    0.2029 C.2       1 <0>         0.0000
      7 C7          3.1399   -0.3617    0.0343 C.ar      1 <0>         0.0000
      8 C8         -0.6046    0.0597   -0.0961 C.3       1 <0>         0.0000
      9 C9         -2.6313   -0.5612   -1.5638 C.3       1 <0>         0.0000
     10 C10        -1.1953   -0.8906   -1.1505 C.3       1 <0>         0.0000
     11 N1          3.3828    1.3549   -2.1465 N.ar      1 <0>         0.0000
     12 N2          2.7114   -1.1343    1.0920 N.pl3     1 <0>         0.0000
     13 N3         -0.3081   -0.8697   -2.3912 N.4       1 <0>         0.0000
     14 O1         -3.3947   -0.7233   -0.3857 O.3       1 <0>         0.0000
     15 H1          5.3188   -0.5188   -0.0647 H         1 <0>         0.0000
     16 H2          5.4200    1.0046   -2.0323 H         1 <0>         0.0000
     17 H3          1.3472    1.6468   -2.0891 H         1 <0>         0.0000
     18 H4          0.8081   -1.5921    1.9754 H         1 <0>         0.0000
     19 H5         -0.7261    1.0972   -0.4331 H         1 <0>         0.0000
     20 H6         -1.2293   -0.0505    0.7929 H         1 <0>         0.0000
     21 H7         -2.6816    0.4699   -1.9497 H         1 <0>         0.0000
     22 H8         -2.9623   -1.2454   -2.3612 H         1 <0>         0.0000
     23 H9         -1.1468   -1.9199   -0.7869 H         1 <0>         0.0000
     24 H10         3.3111   -1.6494    1.7242 H         1 <0>         0.0000
     25 H11         0.6822   -0.9653   -2.1042 H         1 <0>         0.0000
     26 H12        -0.3786    0.0233   -2.8942 H         1 <0>         0.0000
     27 H13        -0.5376   -1.6216   -3.0517 H         1 <0>         0.0000
     28 H14        -4.3275   -0.5262   -0.5679 H         1 <0>         0.0000
@<TRIPOS>BOND
     1    1    2 ar
     2    1    7 ar
     3    1   15 1
     4    2   11 ar
     5    2   16 1
     6    3    5 ar
     7    3   11 ar
     8    3   17 1
     9    4    6 2
    10    4   12 1
    11    4   18 1
    12    5    6 1
    13    5    7 ar
    14    6    8 1
    15    7   12 1
    16    8   10 1
    17    8   19 1
    18    8   20 1
    19    9   10 1
    20    9   14 1
    21    9   21 1
    22    9   22 1
    23   10   13 1
    24   10   23 1
    25   12   24 1
    26   13   25 1
    27   13   26 1
    28   13   27 1
    29   14   28 1
