@<TRIPOS>MOLECULE
*****
   73    76     0     0     0
SMALL
NO_CHARGES

@<TRIPOS>ATOM
      1 C1         -6.9729    2.3477   -3.4523 C.ar      1 <0>         0.0000
      2 C2         -5.6365    2.5502   -3.0892 C.ar      1 <0>         0.0000
      3 C3         -7.9487    3.2426   -3.0015 C.ar      1 <0>         0.0000
      4 C4         -3.8880  -11.0080    1.9364 C.ar      1 <0>         0.0000
      5 C5         -5.2299  -11.3979    1.9299 C.ar      1 <0>         0.0000
      6 C6         -5.2838    3.6289   -2.2776 C.ar      1 <0>         0.0000
      7 C7         -7.5905    4.3269   -2.1962 C.ar      1 <0>         0.0000
      8 C8         -4.7912    6.8240    2.3058 C.ar      1 <0>         0.0000
      9 C9         -3.7466    7.6577    0.3072 C.ar      1 <0>         0.0000
     10 C10        -3.5391    3.9079    1.2386 C.ar      1 <0>         0.0000
     11 C11        -5.8187    3.2187    0.9212 C.ar      1 <0>         0.0000
     12 C12        -4.2660    7.8850    3.0382 C.ar      1 <0>         0.0000
     13 C13        -3.2029    8.7236    1.0295 C.ar      1 <0>         0.0000
     14 C14        -3.2283    2.6676    1.8056 C.ar      1 <0>         0.0000
     15 C15        -5.5312    1.9856    1.4919 C.ar      1 <0>         0.0000
     16 C16        -3.5782   -9.6761    1.6659 C.ar      1 <0>         0.0000
     17 C17        -6.1974  -10.4297    1.6492 C.ar      1 <0>         0.0000
     18 C18        -4.5598    6.6956    0.9234 C.ar      1 <0>         0.0000
     19 C19        -4.8251    4.2053    0.7677 C.ar      1 <0>         0.0000
     20 C20        -6.2553    4.5302   -1.8076 C.ar      1 <0>         0.0000
     21 C21        -3.4679    8.8427    2.3983 C.ar      1 <0>         0.0000
     22 C22        -4.2297    1.6954    1.9323 C.ar      1 <0>         0.0000
     23 C23        -4.6220   -8.7760    1.3990 C.ar      1 <0>         0.0000
     24 C24        -5.1208    5.5383    0.1696 C.2       1 <0>         0.0000
     25 C25        -5.8621    5.6924   -0.9602 C.2       1 <0>         0.0000
     26 C26        -5.7287    7.4302   -2.8273 C.3       1 <0>         0.0000
     27 C27        -4.3430   -7.3244    1.1272 C.3       1 <0>         0.0000
     28 C28        -6.3368    7.0397   -1.4693 C.3       1 <0>         0.0000
     29 C29        -3.1513   -2.3569    2.4039 C.3       1 <0>         0.0000
     30 C30        -2.7948   -1.3199    3.4749 C.3       1 <0>         0.0000
     31 C31        -3.1905   -3.7841    2.9639 C.3       1 <0>         0.0000
     32 C32        -2.7378    0.1041    2.9417 C.3       1 <0>         0.0000
     33 C33        -3.5742   -4.8071    1.8973 C.3       1 <0>         0.0000
     34 N1         -5.9121   -9.1466    1.3896 N.ar      1 <0>         0.0000
     35 O1         -4.8006   -6.4284    3.6686 O.2       1 <0>         0.0000
     36 O2         -2.9663    9.8668    3.1669 O.3       1 <0>         0.0000
     37 O3         -4.0443    0.4531    2.4765 O.3       1 <0>         0.0000
     38 S1         -3.6743   -6.4885    2.6543 S.o       1 <0>         0.0000
     39 H1         -7.2498    1.5057   -4.0815 H         1 <0>         0.0000
     40 H2         -4.8676    1.8659   -3.4395 H         1 <0>         0.0000
     41 H3         -8.9905    3.0958   -3.2758 H         1 <0>         0.0000
     42 H4         -3.1005  -11.7264    2.1492 H         1 <0>         0.0000
     43 H5         -5.5234  -12.4231    2.1363 H         1 <0>         0.0000
     44 H6         -4.2464    3.7776   -1.9934 H         1 <0>         0.0000
     45 H7         -8.3628    5.0072   -1.8465 H         1 <0>         0.0000
     46 H8         -5.3974    6.0774    2.8117 H         1 <0>         0.0000
     47 H9         -3.5216    7.5653   -0.7510 H         1 <0>         0.0000
     48 H10        -2.7574    4.6585    1.1583 H         1 <0>         0.0000
     49 H11        -6.8308    3.4248    0.5886 H         1 <0>         0.0000
     50 H12        -4.4585    7.9859    4.1024 H         1 <0>         0.0000
     51 H13        -2.5688    9.4535    0.5279 H         1 <0>         0.0000
     52 H14        -2.2165    2.4799    2.1465 H         1 <0>         0.0000
     53 H15        -6.3023    1.2300    1.6124 H         1 <0>         0.0000
     54 H16        -2.5470   -9.3321    1.6679 H         1 <0>         0.0000
     55 H17        -7.2535  -10.6946    1.6329 H         1 <0>         0.0000
     56 H18        -5.9547    6.6805   -3.5916 H         1 <0>         0.0000
     57 H19        -4.6390    7.5179   -2.7619 H         1 <0>         0.0000
     58 H20        -6.1258    8.3929   -3.1668 H         1 <0>         0.0000
     59 H21        -3.5834   -7.1912    0.3495 H         1 <0>         0.0000
     60 H22        -5.2688   -6.8148    0.8525 H         1 <0>         0.0000
     61 H23        -6.1348    7.8171   -0.7304 H         1 <0>         0.0000
     62 H24        -7.4279    7.0005   -1.5841 H         1 <0>         0.0000
     63 H25        -4.1249   -2.1034    1.9713 H         1 <0>         0.0000
     64 H26        -2.4205   -2.2994    1.5852 H         1 <0>         0.0000
     65 H27        -3.5247   -1.3622    4.2917 H         1 <0>         0.0000
     66 H28        -1.8152   -1.5533    3.9118 H         1 <0>         0.0000
     67 H29        -2.2119   -4.0428    3.3889 H         1 <0>         0.0000
     68 H30        -3.9173   -3.8435    3.7812 H         1 <0>         0.0000
     69 H31        -2.0174    0.1799    2.1147 H         1 <0>         0.0000
     70 H32        -2.4277    0.8001    3.7327 H         1 <0>         0.0000
     71 H33        -4.5611   -4.5863    1.4767 H         1 <0>         0.0000
     72 H34        -2.8360   -4.8518    1.0880 H         1 <0>         0.0000
     73 H35        -2.4395   10.4553    2.6034 H         1 <0>         0.0000
@<TRIPOS>BOND
     1    1    3 ar
     2    1    2 ar
     3    1   39 1
     4    2    6 ar
     5    2   40 1
     6    3    7 ar
     7    3   41 1
     8    4    5 ar
     9    4   16 ar
    10    4   42 1
    11    5   17 ar
    12    5   43 1
    13    6   20 ar
    14    6   44 1
    15    7   20 ar
    16    7   45 1
    17    8   12 ar
    18    8   18 ar
    19    8   46 1
    20    9   13 ar
    21    9   18 ar
    22    9   47 1
    23   10   14 ar
    24   10   19 ar
    25   10   48 1
    26   11   15 ar
    27   11   19 ar
    28   11   49 1
    29   12   21 ar
    30   12   50 1
    31   13   21 ar
    32   13   51 1
    33   14   22 ar
    34   14   52 1
    35   15   22 ar
    36   15   53 1
    37   16   23 ar
    38   16   54 1
    39   17   34 ar
    40   17   55 1
    41   18   24 1
    42   19   24 1
    43   20   25 1
    44   21   36 1
    45   22   37 1
    46   23   27 1
    47   23   34 ar
    48   24   25 2
    49   25   28 1
    50   26   28 1
    51   26   56 1
    52   26   57 1
    53   26   58 1
    54   27   38 1
    55   27   59 1
    56   27   60 1
    57   28   61 1
    58   28   62 1
    59   29   30 1
    60   29   31 1
    61   29   63 1
    62   29   64 1
    63   30   32 1
    64   30   65 1
    65   30   66 1
    66   31   33 1
    67   31   67 1
    68   31   68 1
    69   32   37 1
    70   32   69 1
    71   32   70 1
    72   33   38 1
    73   33   71 1
    74   33   72 1
    75   35   38 2
    76   36   73 1
