@<TRIPOS>MOLECULE
*****
   74    77     0     0     0
SMALL
NO_CHARGES

@<TRIPOS>ATOM
      1 C1          3.6022   -0.8882   -4.4883 C.ar      1 <0>         0.0000
      2 C2          3.8945   -1.5962   -3.3167 C.ar      1 <0>         0.0000
      3 C3          2.7170    0.1934   -4.4330 C.ar      1 <0>         0.0000
      4 C4          3.3015   -1.2323   -2.1076 C.ar      1 <0>         0.0000
      5 C5          2.1323    0.5617   -3.2187 C.ar      1 <0>         0.0000
      6 C6          1.1634   -3.0965    0.6339 C.ar      1 <0>         0.0000
      7 C7          0.3284   -2.3979   -1.5086 C.ar      1 <0>         0.0000
      8 C8         -0.4734   -0.5839    1.9734 C.ar      1 <0>         0.0000
      9 C9          0.9071   -4.4338    0.3134 C.ar      1 <0>         0.0000
     10 C10         0.0584   -3.7193   -1.8402 C.ar      1 <0>         0.0000
     11 C11        -0.8952   -0.1871    3.2418 C.ar      1 <0>         0.0000
     12 C12         1.2279    0.9355    3.5621 C.ar      1 <0>         0.0000
     13 C13         0.8992   -2.0560   -0.2671 C.ar      1 <0>         0.0000
     14 C14         2.4028   -0.1517   -2.0372 C.ar      1 <0>         0.0000
     15 C15         0.7831   -0.2187    1.4661 C.ar      1 <0>         0.0000
     16 C16         1.6494    0.5440    2.2892 C.ar      1 <0>         0.0000
     17 C17         0.3523   -4.7512   -0.9338 C.ar      1 <0>         0.0000
     18 C18        -0.0383    0.5812    4.0388 C.ar      1 <0>         0.0000
     19 C19         1.1923   -0.6454    0.1005 C.2       1 <0>         0.0000
     20 C20         1.7865    0.2422   -0.7446 C.2       1 <0>         0.0000
     21 C21         3.0329    0.9074    1.8002 C.3       1 <0>         0.0000
     22 C22         1.8947    1.7022   -0.3423 C.3       1 <0>         0.0000
     23 C23         3.0265    1.9604    0.6728 C.3       1 <0>         0.0000
     24 C24         0.7318   -8.6730   -2.4485 C.3       1 <0>         0.0000
     25 C25        -0.0699   -8.3978   -1.1715 C.3       1 <0>         0.0000
     26 C26         1.9065  -12.5787   -9.0659 C.3       1 <0>         0.0000
     27 C27         0.3131   -9.9818   -3.1293 C.3       1 <0>         0.0000
     28 C28         1.1302  -12.7142   -7.7497 C.3       1 <0>         0.0000
     29 C29         0.3339   -7.1094   -0.4698 C.3       1 <0>         0.0000
     30 C30         1.5605  -13.6579  -10.0775 C.3       1 <0>         0.0000
     31 C31         1.0938  -10.2342   -4.4169 C.3       1 <0>         0.0000
     32 C32         1.4894  -11.6041   -6.7646 C.3       1 <0>         0.0000
     33 O1         -0.9580  -11.5022   -5.6297 O.2       1 <0>         0.0000
     34 O2         -0.3819    1.0060    5.3011 O.3       1 <0>         0.0000
     35 O3          0.0530   -6.0197   -1.3525 O.3       1 <0>         0.0000
     36 F1          0.2076  -13.5610  -10.4479 F         1 <0>         0.0000
     37 S1          0.4846  -11.7759   -5.2266 S.o       1 <0>         0.0000
     38 H1          4.0613   -1.1733   -5.4314 H         1 <0>         0.0000
     39 H2          4.5877   -2.4334   -3.3455 H         1 <0>         0.0000
     40 H3          2.4797    0.7500   -5.3364 H         1 <0>         0.0000
     41 H4          3.5285   -1.7897   -1.2040 H         1 <0>         0.0000
     42 H5          1.4360    1.3963   -3.1938 H         1 <0>         0.0000
     43 H6          1.5845   -2.8608    1.6077 H         1 <0>         0.0000
     44 H7          0.0937   -1.6132   -2.2207 H         1 <0>         0.0000
     45 H8         -1.1350   -1.1874    1.3584 H         1 <0>         0.0000
     46 H9          1.1375   -5.2057    1.0389 H         1 <0>         0.0000
     47 H10        -0.3868   -3.9779   -2.7967 H         1 <0>         0.0000
     48 H11        -1.8799   -0.4743    3.6078 H         1 <0>         0.0000
     49 H12         1.8827    1.5146    4.2079 H         1 <0>         0.0000
     50 H13         3.6448    1.2622    2.6353 H         1 <0>         0.0000
     51 H14         3.5115   -0.0003    1.4158 H         1 <0>         0.0000
     52 H15         2.0604    2.3284   -1.2231 H         1 <0>         0.0000
     53 H16         0.9490    2.0212    0.1083 H         1 <0>         0.0000
     54 H17         2.8941    2.9650    1.0925 H         1 <0>         0.0000
     55 H18         4.0011    1.9457    0.1710 H         1 <0>         0.0000
     56 H19         0.5967   -7.8364   -3.1423 H         1 <0>         0.0000
     57 H20         1.8028   -8.7075   -2.2046 H         1 <0>         0.0000
     58 H21        -1.1397   -8.3514   -1.4065 H         1 <0>         0.0000
     59 H22         0.0635   -9.2227   -0.4598 H         1 <0>         0.0000
     60 H23         2.9876  -12.6345   -8.8786 H         1 <0>         0.0000
     61 H24         1.7129  -11.5984   -9.5178 H         1 <0>         0.0000
     62 H25         0.4588  -10.8224   -2.4385 H         1 <0>         0.0000
     63 H26        -0.7550   -9.9502   -3.3702 H         1 <0>         0.0000
     64 H27         0.0558  -12.6791   -7.9508 H         1 <0>         0.0000
     65 H28         1.3423  -13.6920   -7.2982 H         1 <0>         0.0000
     66 H29         1.4055   -7.1208   -0.2244 H         1 <0>         0.0000
     67 H30        -0.2312   -6.9855    0.4637 H         1 <0>         0.0000
     68 H31         1.7087  -14.6622   -9.6647 H         1 <0>         0.0000
     69 H32         2.1523  -13.5524  -10.9926 H         1 <0>         0.0000
     70 H33         0.9466   -9.4182   -5.1327 H         1 <0>         0.0000
     71 H34         2.1661  -10.3626   -4.2278 H         1 <0>         0.0000
     72 H35         1.2607  -10.6171   -7.1812 H         1 <0>         0.0000
     73 H36         2.5461  -11.6395   -6.4737 H         1 <0>         0.0000
     74 H37        -1.2787    0.6958    5.5035 H         1 <0>         0.0000
@<TRIPOS>BOND
     1    1    3 ar
     2    1    2 ar
     3    1   38 1
     4    2    4 ar
     5    2   39 1
     6    3    5 ar
     7    3   40 1
     8    4   14 ar
     9    4   41 1
    10    5   14 ar
    11    5   42 1
    12    6    9 ar
    13    6   13 ar
    14    6   43 1
    15    7   10 ar
    16    7   13 ar
    17    7   44 1
    18    8   11 ar
    19    8   15 ar
    20    8   45 1
    21    9   17 ar
    22    9   46 1
    23   10   17 ar
    24   10   47 1
    25   11   18 ar
    26   11   48 1
    27   12   16 ar
    28   12   18 ar
    29   12   49 1
    30   13   19 1
    31   14   20 1
    32   15   16 ar
    33   15   19 1
    34   16   21 1
    35   17   35 1
    36   18   34 1
    37   19   20 2
    38   20   22 1
    39   21   23 1
    40   21   50 1
    41   21   51 1
    42   22   23 1
    43   22   52 1
    44   22   53 1
    45   23   54 1
    46   23   55 1
    47   24   25 1
    48   24   27 1
    49   24   56 1
    50   24   57 1
    51   25   29 1
    52   25   58 1
    53   25   59 1
    54   26   28 1
    55   26   30 1
    56   26   60 1
    57   26   61 1
    58   27   31 1
    59   27   62 1
    60   27   63 1
    61   28   32 1
    62   28   64 1
    63   28   65 1
    64   29   35 1
    65   29   66 1
    66   29   67 1
    67   30   36 1
    68   30   68 1
    69   30   69 1
    70   31   37 1
    71   31   70 1
    72   31   71 1
    73   32   37 1
    74   32   72 1
    75   32   73 1
    76   33   37 2
    77   34   74 1
