@<TRIPOS>MOLECULE
*****
   28    29     0     0     0
SMALL
NO_CHARGES

@<TRIPOS>ATOM
      1 C1          3.2375   -0.0641    0.2437 C.2       1 <0>         0.0000
      2 C2          4.1193   -0.9730    0.9378 C.2       1 <0>         0.0000
      3 C3          2.0995   -0.7563   -0.0528 C.2       1 <0>         0.0000
      4 C4          3.4471   -2.1639    1.0115 C.2       1 <0>         0.0000
      5 C5          1.6966   -0.1895   -3.0326 C.3       1 <0>         0.0000
      6 C6          1.4015    1.3104   -2.9739 C.3       1 <0>         0.0000
      7 C7          0.5574    1.0976   -0.7796 C.3       1 <0>         0.0000
      8 C8          0.8259   -0.4167   -0.7667 C.3       1 <0>         0.0000
      9 C9          5.4905   -0.6511    1.4575 C.3       1 <0>         0.0000
     10 C10         3.7666   -3.4989    1.5918 C.3       1 <0>         0.0000
     11 N1          0.8323   -0.9769   -2.1406 N.3       1 <0>         0.0000
     12 O1          2.2125   -2.0441    0.4123 O.3       1 <0>         0.0000
     13 O2          1.4648    1.7964   -1.6302 O.3       1 <0>         0.0000
     14 H1          3.4314    0.9683   -0.0160 H         1 <0>         0.0000
     15 H2          1.5762   -0.5614   -4.0562 H         1 <0>         0.0000
     16 H3          2.7356   -0.3655   -2.7360 H         1 <0>         0.0000
     17 H4          2.1371    1.8886   -3.5413 H         1 <0>         0.0000
     18 H5          0.4002    1.5166   -3.3906 H         1 <0>         0.0000
     19 H6         -0.4762    1.2694   -1.1249 H         1 <0>         0.0000
     20 H7          0.6691    1.5355    0.2155 H         1 <0>         0.0000
     21 H8          0.0042   -0.9056   -0.2293 H         1 <0>         0.0000
     22 H9          5.4573    0.1685    2.1846 H         1 <0>         0.0000
     23 H10         5.9484   -1.5128    1.9510 H         1 <0>         0.0000
     24 H11         6.1595   -0.3388    0.6473 H         1 <0>         0.0000
     25 H12         3.0574   -3.7712    2.3823 H         1 <0>         0.0000
     26 H13         3.7285   -4.2837    0.8278 H         1 <0>         0.0000
     27 H14         4.7700   -3.4926    2.0235 H         1 <0>         0.0000
     28 H15        -0.1235   -0.9527   -2.4966 H         1 <0>         0.0000
@<TRIPOS>BOND
     1    1    2 1
     2    1    3 2
     3    1   14 1
     4    2    4 2
     5    2    9 1
     6    3    8 1
     7    3   12 1
     8    4   10 1
     9    4   12 1
    10    5    6 1
    11    5   11 1
    12    5   15 1
    13    5   16 1
    14    6   13 1
    15    6   17 1
    16    6   18 1
    17    7    8 1
    18    7   13 1
    19    7   19 1
    20    7   20 1
    21    8   11 1
    22    8   21 1
    23    9   22 1
    24    9   23 1
    25    9   24 1
    26   10   25 1
    27   10   26 1
    28   10   27 1
    29   11   28 1
