@<TRIPOS>MOLECULE
*****
   39    41     0     0     0
SMALL
NO_CHARGES

@<TRIPOS>ATOM
      1 C1         -2.1092   -0.7856   -1.5610 C.ar      1 <0>         0.0000
      2 C2         -0.8221   -1.3441   -1.5355 C.ar      1 <0>         0.0000
      3 C3         -3.1856   -1.4340   -0.9462 C.ar      1 <0>         0.0000
      4 C4         -0.5803   -2.5657   -0.8940 C.ar      1 <0>         0.0000
      5 C5         -5.5674   -8.6083   -1.0661 C.2       1 <0>         0.0000
      6 C6         -2.9507   -2.6523   -0.3118 C.ar      1 <0>         0.0000
      7 C7         -5.1597   -7.8570    0.0865 C.2       1 <0>         0.0000
      8 C8         -1.6677   -3.1931   -0.3019 C.ar      1 <0>         0.0000
      9 C9         -6.0290   -9.8274   -0.6403 C.2       1 <0>         0.0000
     10 C10        -5.4000   -8.6599    1.2108 C.2       1 <0>         0.0000
     11 C11        -3.9664   -3.4930    0.3840 C.2       1 <0>         0.0000
     12 C12        -4.5689   -6.5250   -0.0234 C.2       1 <0>         0.0000
     13 C13        -6.5635  -10.9797   -1.4311 C.3       1 <0>         0.0000
     14 C14        -5.1838   -8.4307    2.6777 C.3       1 <0>         0.0000
     15 C15        -6.3157  -10.9660    1.6009 C.3       1 <0>         0.0000
     16 C16        -4.0828   -5.8114    1.2591 C.3       1 <0>         0.0000
     17 N1         -5.9186   -9.8505    0.7539 N.pl3     1 <0>         0.0000
     18 N2         -3.3366   -4.6078    0.9449 N.am      1 <0>         0.0000
     19 O1         -5.1562   -3.2539    0.4952 O.2       1 <0>         0.0000
     20 O2         -4.4503   -5.9497   -1.0998 O.2       1 <0>         0.0000
     21 O3         -1.3968   -5.8974   -0.2456 O.2       1 <0>         0.0000
     22 O4         -0.8976   -4.5943    1.8480 O.2       1 <0>         0.0000
     23 S1         -1.6498   -4.7337    0.6008 S.o2      1 <0>         0.0000
     24 H1         -2.2688    0.1628   -2.0660 H         1 <0>         0.0000
     25 H2         -0.0005   -0.8242   -2.0200 H         1 <0>         0.0000
     26 H3         -4.1887   -1.0185   -0.9551 H         1 <0>         0.0000
     27 H4          0.4127   -3.0037   -0.8671 H         1 <0>         0.0000
     28 H5         -5.5027   -8.2604   -2.0877 H         1 <0>         0.0000
     29 H6         -5.9529  -11.8843   -1.3191 H         1 <0>         0.0000
     30 H7         -7.5941  -11.2354   -1.1566 H         1 <0>         0.0000
     31 H8         -6.5615  -10.7127   -2.4902 H         1 <0>         0.0000
     32 H9         -5.8481   -9.0536    3.2814 H         1 <0>         0.0000
     33 H10        -4.1544   -8.6604    2.9817 H         1 <0>         0.0000
     34 H11        -5.3862   -7.3956    2.9543 H         1 <0>         0.0000
     35 H12        -5.5094  -11.2396    2.2865 H         1 <0>         0.0000
     36 H13        -7.2121  -10.7261    2.1830 H         1 <0>         0.0000
     37 H14        -6.5358  -11.8307    0.9764 H         1 <0>         0.0000
     38 H15        -3.4588   -6.4652    1.8710 H         1 <0>         0.0000
     39 H16        -4.9471   -5.5110    1.8578 H         1 <0>         0.0000
@<TRIPOS>BOND
     1    1    2 ar
     2    1    3 ar
     3    1   24 1
     4    2    4 ar
     5    2   25 1
     6    3    6 ar
     7    3   26 1
     8    4    8 ar
     9    4   27 1
    10    5    7 1
    11    5    9 2
    12    5   28 1
    13    6    8 ar
    14    6   11 1
    15    7   10 2
    16    7   12 1
    17    8   23 1
    18    9   13 1
    19    9   17 1
    20   10   14 1
    21   10   17 1
    22   11   18 am
    23   11   19 2
    24   12   16 1
    25   12   20 2
    26   13   29 1
    27   13   30 1
    28   13   31 1
    29   14   32 1
    30   14   33 1
    31   14   34 1
    32   15   17 1
    33   15   35 1
    34   15   36 1
    35   15   37 1
    36   16   18 1
    37   16   38 1
    38   16   39 1
    39   18   23 1
    40   21   23 2
    41   22   23 2
