@<TRIPOS>MOLECULE
*****
   20    20     0     0     0
SMALL
NO_CHARGES

@<TRIPOS>ATOM
      1 C1          3.3621   -1.3698    4.8456 C.2       1 <0>         0.0000
      2 C2          3.2530   -0.0602    5.3685 C.2       1 <0>         0.0000
      3 C3          2.4069    0.6445    4.5094 C.2       1 <0>         0.0000
      4 C4          2.1811    0.8072    1.2642 C.2       1 <0>         0.0000
      5 C5          1.9749    2.0767    4.4787 C.3       1 <0>         0.0000
      6 C6          1.6424    0.7656   -0.1501 C.3       1 <0>         0.0000
      7 C7          1.3914   -0.0217    2.2876 C.3       1 <0>         0.0000
      8 N1          2.6771   -1.4761    3.7083 N.2       1 <0>         0.0000
      9 N2          2.0938   -0.2536    3.5266 N.pl3     1 <0>         0.0000
     10 O1          3.1626    1.4508    1.5817 O.2       1 <0>         0.0000
     11 I1          3.6376    0.5171    7.4385 I         1 <0>         0.0000
     12 H1          3.9031   -2.2178    5.2438 H         1 <0>         0.0000
     13 H2          2.7329    2.6824    3.9736 H         1 <0>         0.0000
     14 H3          1.0306    2.2055    3.9432 H         1 <0>         0.0000
     15 H4          1.8460    2.4539    5.4948 H         1 <0>         0.0000
     16 H5          0.5486    0.8253   -0.1662 H         1 <0>         0.0000
     17 H6          2.0734    1.5765   -0.7390 H         1 <0>         0.0000
     18 H7          1.9200   -0.1925   -0.6060 H         1 <0>         0.0000
     19 H8          1.1518   -1.0027    1.8702 H         1 <0>         0.0000
     20 H9          0.4401    0.4923    2.4740 H         1 <0>         0.0000
@<TRIPOS>BOND
     1    1    2 1
     2    1    8 2
     3    1   12 1
     4    2    3 2
     5    2   11 1
     6    3    5 1
     7    3    9 1
     8    4    6 1
     9    4    7 1
    10    4   10 2
    11    5   13 1
    12    5   14 1
    13    5   15 1
    14    6   16 1
    15    6   17 1
    16    6   18 1
    17    7    9 1
    18    7   19 1
    19    7   20 1
    20    8    9 1
