@<TRIPOS>MOLECULE
*****
   74    78     0     0     0
SMALL
NO_CHARGES

@<TRIPOS>ATOM
      1 C1          4.3951   -3.2616   -3.5896 C.ar      1 <0>         0.0000
      2 C2          4.3359   -3.3745   -2.1956 C.ar      1 <0>         0.0000
      3 C3          3.6495   -2.2660   -4.2293 C.ar      1 <0>         0.0000
      4 C4         -2.8472  -17.2264    5.7028 C.ar      1 <0>         0.0000
      5 C5         -1.6985  -17.9347    6.0650 C.ar      1 <0>         0.0000
      6 C6          3.5332   -2.5086   -1.4528 C.ar      1 <0>         0.0000
      7 C7          2.8541   -1.3938   -3.4817 C.ar      1 <0>         0.0000
      8 C8          0.6517   -2.9633    1.1857 C.ar      1 <0>         0.0000
      9 C9          0.3907   -3.2826   -1.1817 C.ar      1 <0>         0.0000
     10 C10        -0.9638   -0.1153    0.8608 C.ar      1 <0>         0.0000
     11 C11         0.3329   -4.3059    1.4154 C.ar      1 <0>         0.0000
     12 C12         0.0622   -4.6156   -0.9719 C.ar      1 <0>         0.0000
     13 C13        -1.6139    0.8033    1.6843 C.ar      1 <0>         0.0000
     14 C14        -2.7623  -15.8419    5.5641 C.ar      1 <0>         0.0000
     15 C15         0.4927    1.9551    2.0091 C.ar      1 <0>         0.0000
     16 C16        -0.5179  -17.2167    6.2728 C.ar      1 <0>         0.0000
     17 C17         0.7057   -2.4271   -0.1080 C.ar      1 <0>         0.0000
     18 C18         2.7704   -1.5075   -2.0824 C.ar      1 <0>         0.0000
     19 C19         0.4067   -0.0115    0.5775 C.ar      1 <0>         0.0000
     20 C20         1.1440    1.0390    1.1797 C.ar      1 <0>         0.0000
     21 C21         0.0381   -5.1420    0.3300 C.ar      1 <0>         0.0000
     22 C22        -0.8793    1.8475    2.2583 C.ar      1 <0>         0.0000
     23 C23        -1.5290  -15.2108    5.7904 C.ar      1 <0>         0.0000
     24 C24         1.0629   -0.9995   -0.3210 C.2       1 <0>         0.0000
     25 C25         1.9275   -0.5796   -1.2859 C.2       1 <0>         0.0000
     26 C26         2.6336    1.1486    0.9470 C.3       1 <0>         0.0000
     27 C27         2.1043    0.9071   -1.5385 C.3       1 <0>         0.0000
     28 C28         2.9992    1.5907   -0.4850 C.3       1 <0>         0.0000
     29 C29        -1.3776  -13.7239    5.6294 C.3       1 <0>         0.0000
     30 C30        -0.7787   -9.2462    2.9226 C.3       1 <0>         0.0000
     31 C31        -0.7096   -8.5181    1.5756 C.3       1 <0>         0.0000
     32 C32        -1.1676  -10.7223    2.7693 C.3       1 <0>         0.0000
     33 C33        -0.3245   -7.0548    1.7356 C.3       1 <0>         0.0000
     34 C34        -1.2257  -11.4435    4.1139 C.3       1 <0>         0.0000
     35 N1         -0.4235  -15.8867    6.1404 N.ar      1 <0>         0.0000
     36 O1         -0.4115  -13.7905    3.0728 O.2       1 <0>         0.0000
     37 O2         -1.4494    2.7889    3.0837 O.3       1 <0>         0.0000
     38 O3         -0.2919   -6.4669    0.4339 O.3       1 <0>         0.0000
     39 S1         -1.5932  -13.2333    3.8432 S.o       1 <0>         0.0000
     40 H1          5.0170   -3.9388   -4.1692 H         1 <0>         0.0000
     41 H2          4.9172   -4.1394   -1.6865 H         1 <0>         0.0000
     42 H3          3.6852   -2.1694   -5.3117 H         1 <0>         0.0000
     43 H4         -3.7884  -17.7423    5.5310 H         1 <0>         0.0000
     44 H5         -1.7121  -19.0142    6.1843 H         1 <0>         0.0000
     45 H6          3.4874   -2.6062   -0.3725 H         1 <0>         0.0000
     46 H7          2.2696   -0.6337   -3.9941 H         1 <0>         0.0000
     47 H8          0.8704   -2.3219    2.0354 H         1 <0>         0.0000
     48 H9          0.4060   -2.8927   -2.1945 H         1 <0>         0.0000
     49 H10        -1.5322   -0.9306    0.4222 H         1 <0>         0.0000
     50 H11         0.3165   -4.6793    2.4331 H         1 <0>         0.0000
     51 H12        -0.1821   -5.2712   -1.8028 H         1 <0>         0.0000
     52 H13        -2.6811    0.7069    1.8793 H         1 <0>         0.0000
     53 H14        -3.6320  -15.2560    5.2776 H         1 <0>         0.0000
     54 H15         1.0451    2.7620    2.4835 H         1 <0>         0.0000
     55 H16         0.3978  -17.7324    6.5578 H         1 <0>         0.0000
     56 H17         3.0767    1.8382    1.6722 H         1 <0>         0.0000
     57 H18         3.0828    0.1650    1.1250 H         1 <0>         0.0000
     58 H19         2.5332    1.0761   -2.5298 H         1 <0>         0.0000
     59 H20         1.1228    1.3928   -1.5234 H         1 <0>         0.0000
     60 H21         2.8881    2.6770   -0.5870 H         1 <0>         0.0000
     61 H22         4.0540    1.3551   -0.6683 H         1 <0>         0.0000
     62 H23        -2.1381  -13.1705    6.1907 H         1 <0>         0.0000
     63 H24        -0.3748  -13.4199    5.9366 H         1 <0>         0.0000
     64 H25         0.1948   -9.1809    3.4264 H         1 <0>         0.0000
     65 H26        -1.5012   -8.7412    3.5783 H         1 <0>         0.0000
     66 H27         0.0212   -9.0070    0.9215 H         1 <0>         0.0000
     67 H28        -1.6788   -8.5736    1.0664 H         1 <0>         0.0000
     68 H29        -2.1408  -10.7954    2.2676 H         1 <0>         0.0000
     69 H30        -0.4406  -11.2329    2.1291 H         1 <0>         0.0000
     70 H31         0.6619   -6.9631    2.2113 H         1 <0>         0.0000
     71 H32        -1.0561   -6.5284    2.3648 H         1 <0>         0.0000
     72 H33        -0.2615  -11.3932    4.6311 H         1 <0>         0.0000
     73 H34        -2.0090  -11.0368    4.7642 H         1 <0>         0.0000
     74 H35        -2.3973    2.5997    3.1674 H         1 <0>         0.0000
@<TRIPOS>BOND
     1    1    3 ar
     2    1    2 ar
     3    1   40 1
     4    2    6 ar
     5    2   41 1
     6    3    7 ar
     7    3   42 1
     8    4    5 ar
     9    4   14 ar
    10    4   43 1
    11    5   16 ar
    12    5   44 1
    13    6   18 ar
    14    6   45 1
    15    7   18 ar
    16    7   46 1
    17    8   11 ar
    18    8   17 ar
    19    8   47 1
    20    9   12 ar
    21    9   17 ar
    22    9   48 1
    23   10   13 ar
    24   10   19 ar
    25   10   49 1
    26   11   21 ar
    27   11   50 1
    28   12   21 ar
    29   12   51 1
    30   13   22 ar
    31   13   52 1
    32   14   23 ar
    33   14   53 1
    34   15   20 ar
    35   15   22 ar
    36   15   54 1
    37   16   35 ar
    38   16   55 1
    39   17   24 1
    40   18   25 1
    41   19   20 ar
    42   19   24 1
    43   20   26 1
    44   21   38 1
    45   22   37 1
    46   23   29 1
    47   23   35 ar
    48   24   25 2
    49   25   27 1
    50   26   28 1
    51   26   56 1
    52   26   57 1
    53   27   28 1
    54   27   58 1
    55   27   59 1
    56   28   60 1
    57   28   61 1
    58   29   39 1
    59   29   62 1
    60   29   63 1
    61   30   31 1
    62   30   32 1
    63   30   64 1
    64   30   65 1
    65   31   33 1
    66   31   66 1
    67   31   67 1
    68   32   34 1
    69   32   68 1
    70   32   69 1
    71   33   38 1
    72   33   70 1
    73   33   71 1
    74   34   39 1
    75   34   72 1
    76   34   73 1
    77   36   39 2
    78   37   74 1
