@<TRIPOS>MOLECULE
*****
   68    70     0     0     0
SMALL
NO_CHARGES

@<TRIPOS>ATOM
      1 C1         -4.4658    1.9531    0.1129 C.ar      1 <0>         0.0000
      2 C2         -3.1817    2.2103   -0.3644 C.ar      1 <0>         0.0000
      3 C3         -3.8724   -0.3557    0.4719 C.ar      1 <0>         0.0000
      4 C4         -2.5839   -0.0975   -0.0069 C.ar      1 <0>         0.0000
      5 C5         -4.8278    0.6633    0.5314 C.ar      1 <0>         0.0000
      6 C6         -2.2265    1.1846   -0.4353 C.ar      1 <0>         0.0000
      7 C7         -7.2728    0.1943   -0.1549 C.3       1 <0>         0.0000
      8 C8         -0.7898    1.5419   -2.5513 C.3       1 <0>         0.0000
      9 C9         -8.4338    1.0903    0.3078 C.3       1 <0>         0.0000
     10 C10         0.0519    2.8102   -2.7734 C.3       1 <0>         0.0000
     11 C11        -6.2309    0.3637    0.9926 C.3       1 <0>         0.0000
     12 C12        -0.8540    1.4417   -1.0015 C.3       1 <0>         0.0000
     13 C13        -8.1343    3.7629    2.0111 C.3       1 <0>         0.0000
     14 C14         2.1433    4.7697   -2.3122 C.3       1 <0>         0.0000
     15 C15        -9.9203    0.9579    4.0819 C.3       1 <0>         0.0000
     16 C16        -7.6790    1.9424    4.6224 C.3       1 <0>         0.0000
     17 C17        -9.7151    3.4118    4.5244 C.3       1 <0>         0.0000
     18 C18         0.6156    4.7261    1.2871 C.3       1 <0>         0.0000
     19 C19         2.6150    3.3498    0.6180 C.3       1 <0>         0.0000
     20 C20         2.6045    5.8405    0.3194 C.3       1 <0>         0.0000
     21 C21        -8.8120    2.4299    2.3708 C.3       1 <0>         0.0000
     22 C22         1.1484    4.3958   -1.2011 C.3       1 <0>         0.0000
     23 C23        -9.0146    2.1905    3.8983 C.3       1 <0>         0.0000
     24 C24         1.7429    4.5613    0.2440 C.3       1 <0>         0.0000
     25 N1         -8.1693    1.2561    1.7455 N.3       1 <0>         0.0000
     26 N2          0.7141    3.0132   -1.4698 N.3       1 <0>         0.0000
     27 O1         -6.7195    1.4625    1.7640 O.3       1 <0>         0.0000
     28 O2         -0.3869    2.7148   -0.5498 O.3       1 <0>         0.0000
     29 H1         -5.1944    2.7554    0.1834 H         1 <0>         0.0000
     30 H2         -2.9021    3.2149   -0.6686 H         1 <0>         0.0000
     31 H3         -4.1298   -1.3566    0.8124 H         1 <0>         0.0000
     32 H4         -1.8491   -0.8994   -0.0349 H         1 <0>         0.0000
     33 H5         -7.5704   -0.8529   -0.2481 H         1 <0>         0.0000
     34 H6         -6.8688    0.5226   -1.1146 H         1 <0>         0.0000
     35 H7         -1.7854    1.6433   -2.9878 H         1 <0>         0.0000
     36 H8         -0.3183    0.6528   -2.9768 H         1 <0>         0.0000
     37 H9         -8.4231    2.0476   -0.2344 H         1 <0>         0.0000
     38 H10        -9.4162    0.6265    0.1837 H         1 <0>         0.0000
     39 H11         0.8051    2.6803   -3.5520 H         1 <0>         0.0000
     40 H12        -0.5912    3.6663   -3.0340 H         1 <0>         0.0000
     41 H13        -6.2348   -0.5390    1.6177 H         1 <0>         0.0000
     42 H14        -0.1558    0.6669   -0.6588 H         1 <0>         0.0000
     43 H15        -7.1812    3.8849    2.5284 H         1 <0>         0.0000
     44 H16        -8.7832    4.6028    2.2704 H         1 <0>         0.0000
     45 H17        -7.9349    3.8213    0.9373 H         1 <0>         0.0000
     46 H18         3.0218    4.1173   -2.2941 H         1 <0>         0.0000
     47 H19         2.4755    5.8017   -2.1992 H         1 <0>         0.0000
     48 H20         1.6841    4.6929   -3.3001 H         1 <0>         0.0000
     49 H21       -10.9090    1.1239    3.6355 H         1 <0>         0.0000
     50 H22        -9.4769    0.0775    3.6100 H         1 <0>         0.0000
     51 H23       -10.0683    0.7440    5.1464 H         1 <0>         0.0000
     52 H24        -6.9890    2.7840    4.5077 H         1 <0>         0.0000
     53 H25        -7.1804    1.0509    4.2359 H         1 <0>         0.0000
     54 H26        -7.8582    1.8025    5.6948 H         1 <0>         0.0000
     55 H27        -9.0678    4.2937    4.5416 H         1 <0>         0.0000
     56 H28        -9.9979    3.1924    5.5598 H         1 <0>         0.0000
     57 H29       -10.6312    3.6730    3.9799 H         1 <0>         0.0000
     58 H30        -0.0133    5.5921    1.0467 H         1 <0>         0.0000
     59 H31        -0.0248    3.8473    1.3398 H         1 <0>         0.0000
     60 H32         1.0511    4.8996    2.2780 H         1 <0>         0.0000
     61 H33         3.4136    3.1849   -0.1131 H         1 <0>         0.0000
     62 H34         2.0182    2.4368    0.6729 H         1 <0>         0.0000
     63 H35         3.0842    3.5164    1.5945 H         1 <0>         0.0000
     64 H36         3.5294    5.7596   -0.2588 H         1 <0>         0.0000
     65 H37         2.8867    6.0291    1.3606 H         1 <0>         0.0000
     66 H38         2.0544    6.7211   -0.0341 H         1 <0>         0.0000
     67 H39        -9.8186    2.4392    1.9314 H         1 <0>         0.0000
     68 H40         0.2765    5.0701   -1.2817 H         1 <0>         0.0000
@<TRIPOS>BOND
     1    1    2 ar
     2    1    5 ar
     3    1   29 1
     4    2    6 ar
     5    2   30 1
     6    3    4 ar
     7    3    5 ar
     8    3   31 1
     9    4    6 ar
    10    4   32 1
    11    5   11 1
    12    6   12 1
    13    7    9 1
    14    7   11 1
    15    7   33 1
    16    7   34 1
    17    8   10 1
    18    8   12 1
    19    8   35 1
    20    8   36 1
    21    9   25 1
    22    9   37 1
    23    9   38 1
    24   10   26 1
    25   10   39 1
    26   10   40 1
    27   11   27 1
    28   11   41 1
    29   12   28 1
    30   12   42 1
    31   13   21 1
    32   13   43 1
    33   13   44 1
    34   13   45 1
    35   14   22 1
    36   14   46 1
    37   14   47 1
    38   14   48 1
    39   15   23 1
    40   15   49 1
    41   15   50 1
    42   15   51 1
    43   16   23 1
    44   16   52 1
    45   16   53 1
    46   16   54 1
    47   17   23 1
    48   17   55 1
    49   17   56 1
    50   17   57 1
    51   18   24 1
    52   18   58 1
    53   18   59 1
    54   18   60 1
    55   19   24 1
    56   19   61 1
    57   19   62 1
    58   19   63 1
    59   20   24 1
    60   20   64 1
    61   20   65 1
    62   20   66 1
    63   21   23 1
    64   21   25 1
    65   21   67 1
    66   22   24 1
    67   22   26 1
    68   22   68 1
    69   25   27 1
    70   26   28 1
