@<TRIPOS>MOLECULE
*****
   50    52     0     0     0
SMALL
NO_CHARGES

@<TRIPOS>ATOM
      1 C1        -11.5807   -0.0472    7.6908 C.ar      1 <0>         0.0000
      2 C2         -6.7123    1.2693    1.0000 C.ar      1 <0>         0.0000
      3 C3        -10.6686    0.0629    8.7202 C.ar      1 <0>         0.0000
      4 C4         -7.7067    1.5991    1.9285 C.ar      1 <0>         0.0000
      5 C5         -5.8049    0.2449    1.2741 C.ar      1 <0>         0.0000
      6 C6        -11.1578   -0.0044    6.3420 C.ar      1 <0>         0.0000
      7 C7         -6.9685    0.4001    9.0697 C.ar      1 <0>         0.0000
      8 C8         -6.8870   -0.1314    3.4015 C.ar      1 <0>         0.0000
      9 C9         -6.6384    0.4064    7.6923 C.ar      1 <0>         0.0000
     10 C10        -9.2827    0.2032    8.4371 C.ar      1 <0>         0.0000
     11 C11        -7.7934    0.9039    3.1388 C.ar      1 <0>         0.0000
     12 C12        -5.8908   -0.4644    2.4814 C.ar      1 <0>         0.0000
     13 C13        -8.2880    0.2971    9.4628 C.ar      1 <0>         0.0000
     14 C14        -8.8417    0.2324    7.0736 C.ar      1 <0>         0.0000
     15 C15        -9.8201    0.1402    6.0279 C.ar      1 <0>         0.0000
     16 C16        -8.6683    0.2789   10.9211 C.3       1 <0>         0.0000
     17 C17        -2.7487    0.9012    6.8250 C.3       1 <0>         0.0000
     18 C18        -8.8161    1.2904    4.1752 C.3       1 <0>         0.0000
     19 C19        -2.5363    0.2526    5.4527 C.3       1 <0>         0.0000
     20 C20        -3.8332   -0.2814    4.8323 C.3       1 <0>         0.0000
     21 C21        -3.6063   -0.9398    3.4676 C.3       1 <0>         0.0000
     22 C22        -4.8731   -1.5319    2.8215 C.3       1 <0>         0.0000
     23 N1         -7.5264    0.3276    6.7217 N.ar      1 <0>         0.0000
     24 O1         -4.5381   -2.2251    1.6081 O.3       1 <0>         0.0000
     25 O2         -9.4477    0.1051    4.7118 O.3       1 <0>         0.0000
     26 H1        -12.6387   -0.1619    7.9114 H         1 <0>         0.0000
     27 H2         -6.6544    1.8062    0.0562 H         1 <0>         0.0000
     28 H3        -11.0100    0.0348    9.7497 H         1 <0>         0.0000
     29 H4         -8.4178    2.3920    1.7049 H         1 <0>         0.0000
     30 H5         -5.0435   -0.0281    0.5500 H         1 <0>         0.0000
     31 H6        -11.8734   -0.0890    5.5294 H         1 <0>         0.0000
     32 H7         -6.1734    0.4739    9.8073 H         1 <0>         0.0000
     33 H8         -6.9713   -0.6635    4.3438 H         1 <0>         0.0000
     34 H9         -5.5953    0.4800    7.3891 H         1 <0>         0.0000
     35 H10        -9.3482    1.1026   11.1647 H         1 <0>         0.0000
     36 H11        -9.1799   -0.6530   11.1859 H         1 <0>         0.0000
     37 H12        -7.7838    0.3709   11.5559 H         1 <0>         0.0000
     38 H13        -3.1494    0.1778    7.5453 H         1 <0>         0.0000
     39 H14        -1.8097    1.2894    7.2344 H         1 <0>         0.0000
     40 H15        -3.4550    1.7371    6.7617 H         1 <0>         0.0000
     41 H16        -8.3353    1.8429    4.9863 H         1 <0>         0.0000
     42 H17        -9.5970    1.9225    3.7343 H         1 <0>         0.0000
     43 H18        -2.0860    0.9844    4.7695 H         1 <0>         0.0000
     44 H19        -1.8104   -0.5661    5.5452 H         1 <0>         0.0000
     45 H20        -4.5535    0.5380    4.7300 H         1 <0>         0.0000
     46 H21        -4.2938   -1.0076    5.5166 H         1 <0>         0.0000
     47 H22        -2.8727   -1.7521    3.5852 H         1 <0>         0.0000
     48 H23        -3.1705   -0.2174    2.7668 H         1 <0>         0.0000
     49 H24        -5.3314   -2.2360    3.5322 H         1 <0>         0.0000
     50 H25        -3.8103   -2.8340    1.8094 H         1 <0>         0.0000
@<TRIPOS>BOND
     1    1    3 ar
     2    1    6 ar
     3    1   26 1
     4    2    4 ar
     5    2    5 ar
     6    2   27 1
     7    3   10 ar
     8    3   28 1
     9    4   11 ar
    10    4   29 1
    11    5   12 ar
    12    5   30 1
    13    6   15 ar
    14    6   31 1
    15    7    9 ar
    16    7   13 ar
    17    7   32 1
    18    8   11 ar
    19    8   12 ar
    20    8   33 1
    21    9   23 ar
    22    9   34 1
    23   10   13 ar
    24   10   14 ar
    25   11   18 1
    26   12   22 1
    27   13   16 1
    28   14   15 ar
    29   14   23 ar
    30   15   25 1
    31   16   35 1
    32   16   36 1
    33   16   37 1
    34   17   19 1
    35   17   38 1
    36   17   39 1
    37   17   40 1
    38   18   25 1
    39   18   41 1
    40   18   42 1
    41   19   20 1
    42   19   43 1
    43   19   44 1
    44   20   21 1
    45   20   45 1
    46   20   46 1
    47   21   22 1
    48   21   47 1
    49   21   48 1
    50   22   24 1
    51   22   49 1
    52   24   50 1
