@<TRIPOS>MOLECULE
*****
   50    52     0     0     0
SMALL
NO_CHARGES

@<TRIPOS>ATOM
      1 C1         -5.7578    1.4783    8.4122 C.ar      1 <0>         0.0000
      2 C2         -8.6319   -0.3130    2.5803 C.ar      1 <0>         0.0000
      3 C3         -6.5647    0.4283    8.8013 C.ar      1 <0>         0.0000
      4 C4         -9.0028    0.8625    3.2343 C.ar      1 <0>         0.0000
      5 C5         -7.3149   -0.7776    2.6680 C.ar      1 <0>         0.0000
      6 C6         -6.1699    2.3646    7.3976 C.ar      1 <0>         0.0000
      7 C7         -9.9286   -0.9088    7.9204 C.ar      1 <0>         0.0000
      8 C8         -6.7297    1.1556    3.9898 C.ar      1 <0>         0.0000
      9 C9        -10.2751    0.0482    6.9354 C.ar      1 <0>         0.0000
     10 C10        -7.8306    0.2426    8.1882 C.ar      1 <0>         0.0000
     11 C11        -8.0492    1.6095    3.9387 C.ar      1 <0>         0.0000
     12 C12        -6.3614   -0.0537    3.3894 C.ar      1 <0>         0.0000
     13 C13        -8.7139   -0.8190    8.5679 C.ar      1 <0>         0.0000
     14 C14        -8.2731    1.1515    7.1665 C.ar      1 <0>         0.0000
     15 C15        -7.3984    2.2175    6.7717 C.ar      1 <0>         0.0000
     16 C16        -8.3395   -1.7894    9.6585 C.3       1 <0>         0.0000
     17 C17        -6.7798   -3.9021    7.1462 C.3       1 <0>         0.0000
     18 C18        -8.4660    2.8745    4.6502 C.3       1 <0>         0.0000
     19 C19        -5.7164   -2.8477    6.8194 C.3       1 <0>         0.0000
     20 C20        -5.9152   -2.2324    5.4306 C.3       1 <0>         0.0000
     21 C21        -4.8773   -1.1586    5.0893 C.3       1 <0>         0.0000
     22 C22        -4.9855   -0.6222    3.6486 C.3       1 <0>         0.0000
     23 N1         -9.4957    1.0441    6.5703 N.ar      1 <0>         0.0000
     24 O1         -4.0191    0.4158    3.4180 O.3       1 <0>         0.0000
     25 O2         -7.6914    3.1672    5.8341 O.3       1 <0>         0.0000
     26 H1         -4.7873    1.6232    8.8798 H         1 <0>         0.0000
     27 H2         -9.3730   -0.8830    2.0256 H         1 <0>         0.0000
     28 H3         -6.2343   -0.2502    9.5803 H         1 <0>         0.0000
     29 H4        -10.0388    1.1933    3.2148 H         1 <0>         0.0000
     30 H5         -7.0365   -1.7151    2.1914 H         1 <0>         0.0000
     31 H6         -5.5286    3.1796    7.0753 H         1 <0>         0.0000
     32 H7        -10.6329   -1.6990    8.1678 H         1 <0>         0.0000
     33 H8         -5.9781    1.7253    4.5246 H         1 <0>         0.0000
     34 H9        -11.2424   -0.0195    6.4371 H         1 <0>         0.0000
     35 H10        -7.3912   -2.2904    9.4448 H         1 <0>         0.0000
     36 H11        -8.2259   -1.2725   10.6183 H         1 <0>         0.0000
     37 H12        -9.1072   -2.5578    9.7760 H         1 <0>         0.0000
     38 H13        -6.7568   -4.7219    6.4186 H         1 <0>         0.0000
     39 H14        -6.6270   -4.3374    8.1400 H         1 <0>         0.0000
     40 H15        -7.7844   -3.4653    7.1202 H         1 <0>         0.0000
     41 H16        -8.2818    3.7497    4.0189 H         1 <0>         0.0000
     42 H17        -9.5256    2.8308    4.9025 H         1 <0>         0.0000
     43 H18        -5.7408   -2.0475    7.5690 H         1 <0>         0.0000
     44 H19        -4.7178   -3.3005    6.8832 H         1 <0>         0.0000
     45 H20        -6.9181   -1.7950    5.3726 H         1 <0>         0.0000
     46 H21        -5.8842   -3.0298    4.6746 H         1 <0>         0.0000
     47 H22        -3.8664   -1.5718    5.2291 H         1 <0>         0.0000
     48 H23        -4.9782   -0.3125    5.7793 H         1 <0>         0.0000
     49 H24        -4.8076   -1.4531    2.9489 H         1 <0>         0.0000
     50 H25        -3.1648    0.1011    3.7543 H         1 <0>         0.0000
@<TRIPOS>BOND
     1    1    3 ar
     2    1    6 ar
     3    1   26 1
     4    2    4 ar
     5    2    5 ar
     6    2   27 1
     7    3   10 ar
     8    3   28 1
     9    4   11 ar
    10    4   29 1
    11    5   12 ar
    12    5   30 1
    13    6   15 ar
    14    6   31 1
    15    7    9 ar
    16    7   13 ar
    17    7   32 1
    18    8   11 ar
    19    8   12 ar
    20    8   33 1
    21    9   23 ar
    22    9   34 1
    23   10   13 ar
    24   10   14 ar
    25   11   18 1
    26   12   22 1
    27   13   16 1
    28   14   15 ar
    29   14   23 ar
    30   15   25 1
    31   16   35 1
    32   16   36 1
    33   16   37 1
    34   17   19 1
    35   17   38 1
    36   17   39 1
    37   17   40 1
    38   18   25 1
    39   18   41 1
    40   18   42 1
    41   19   20 1
    42   19   43 1
    43   19   44 1
    44   20   21 1
    45   20   45 1
    46   20   46 1
    47   21   22 1
    48   21   47 1
    49   21   48 1
    50   22   24 1
    51   22   49 1
    52   24   50 1
