@<TRIPOS>MOLECULE
*****
   73    76     0     0     0
SMALL
NO_CHARGES

@<TRIPOS>ATOM
      1 C1          9.3236    2.4707    9.0236 C.ar      1 <0>         0.0000
      2 C2          3.6610   -3.5370    4.4914 C.ar      1 <0>         0.0000
      3 C3          9.0713    2.8223    7.6920 C.ar      1 <0>         0.0000
      4 C4          8.6812    1.3575    9.5744 C.ar      1 <0>         0.0000
      5 C5          3.3392   -2.6999    5.5662 C.ar      1 <0>         0.0000
      6 C6          4.9869   -3.6105    4.0526 C.ar      1 <0>         0.0000
      7 C7         -6.4670    7.5303   -2.7767 C.ar      1 <0>         0.0000
      8 C8         -6.0705    8.4417   -3.7582 C.ar      1 <0>         0.0000
      9 C9          8.1867    2.0659    6.9212 C.ar      1 <0>         0.0000
     10 C10         7.8035    0.5971    8.7967 C.ar      1 <0>         0.0000
     11 C11         4.3308   -1.9392    6.1864 C.ar      1 <0>         0.0000
     12 C12         5.9791   -2.8538    4.6822 C.ar      1 <0>         0.0000
     13 C13         4.8184    1.9202    6.7437 C.ar      1 <0>         0.0000
     14 C14         5.1719    0.8154    4.6393 C.ar      1 <0>         0.0000
     15 C15         3.7966    2.6779    6.1834 C.ar      1 <0>         0.0000
     16 C16         4.1544    1.5755    4.0564 C.ar      1 <0>         0.0000
     17 C17        -5.5397    6.5972   -2.3131 C.ar      1 <0>         0.0000
     18 C18        -4.7566    8.3784   -4.2307 C.ar      1 <0>         0.0000
     19 C19         7.5523    0.9309    7.4556 C.ar      1 <0>         0.0000
     20 C20         5.5153    0.9554    5.9905 C.ar      1 <0>         0.0000
     21 C21         5.6658   -1.9944    5.7488 C.ar      1 <0>         0.0000
     22 C22         3.4520    2.5069    4.8332 C.ar      1 <0>         0.0000
     23 C23        -4.2446    6.6188   -2.8497 C.ar      1 <0>         0.0000
     24 C24         6.5961    0.1464    6.6210 C.2       1 <0>         0.0000
     25 C25         6.7209   -1.1943    6.4353 C.2       1 <0>         0.0000
     26 C26         7.5618   -3.0331    7.9936 C.3       1 <0>         0.0000
     27 C27        -3.1925    5.6491   -2.3790 C.3       1 <0>         0.0000
     28 C28         7.9160   -1.9954    6.9148 C.3       1 <0>         0.0000
     29 C29         0.3491    4.0066    1.3213 C.3       1 <0>         0.0000
     30 C30         0.8680    4.0975    2.7606 C.3       1 <0>         0.0000
     31 C31        -0.8231    4.9629    1.0657 C.3       1 <0>         0.0000
     32 C32         2.0274    3.1437    3.0093 C.3       1 <0>         0.0000
     33 C33        -1.3277    4.8538   -0.3735 C.3       1 <0>         0.0000
     34 N1         -3.8538    7.4919   -3.7910 N.ar      1 <0>         0.0000
     35 O1         -3.8370    5.5654    0.2210 O.2       1 <0>         0.0000
     36 O2         -2.2071    7.3745   -0.5482 O.2       1 <0>         0.0000
     37 O3          2.4327    3.2961    4.3702 O.3       1 <0>         0.0000
     38 S1         -2.7180    5.9980   -0.6403 S.o2      1 <0>         0.0000
     39 H1         10.0061    3.0638    9.6269 H         1 <0>         0.0000
     40 H2          2.8891   -4.1288    4.0059 H         1 <0>         0.0000
     41 H3          9.5610    3.6897    7.2564 H         1 <0>         0.0000
     42 H4          8.8573    1.0844   10.6120 H         1 <0>         0.0000
     43 H5          2.3137   -2.6407    5.9224 H         1 <0>         0.0000
     44 H6          5.2499   -4.2577    3.2194 H         1 <0>         0.0000
     45 H7         -7.4777    7.5466   -2.3775 H         1 <0>         0.0000
     46 H8         -6.7573    9.1863   -4.1503 H         1 <0>         0.0000
     47 H9          7.9815    2.3514    5.8928 H         1 <0>         0.0000
     48 H10         7.2943   -0.2568    9.2343 H         1 <0>         0.0000
     49 H11         4.0745   -1.2865    7.0156 H         1 <0>         0.0000
     50 H12         7.0033   -2.9160    4.3235 H         1 <0>         0.0000
     51 H13         5.0792    2.0709    7.7878 H         1 <0>         0.0000
     52 H14         5.7054    0.0962    4.0262 H         1 <0>         0.0000
     53 H15         3.2520    3.4111    6.7714 H         1 <0>         0.0000
     54 H16         3.9246    1.4321    3.0067 H         1 <0>         0.0000
     55 H17        -5.7946    5.8830   -1.5367 H         1 <0>         0.0000
     56 H18        -4.4106    9.0715   -4.9957 H         1 <0>         0.0000
     57 H19         6.8027   -3.7344    7.6340 H         1 <0>         0.0000
     58 H20         7.1663   -2.5481    8.8922 H         1 <0>         0.0000
     59 H21         8.4479   -3.6085    8.2820 H         1 <0>         0.0000
     60 H22        -2.2949    5.7579   -2.9899 H         1 <0>         0.0000
     61 H23        -3.5438    4.6138   -2.3814 H         1 <0>         0.0000
     62 H24         8.6992   -1.3286    7.2793 H         1 <0>         0.0000
     63 H25         8.3415   -2.5287    6.0547 H         1 <0>         0.0000
     64 H26         1.1644    4.2325    0.6209 H         1 <0>         0.0000
     65 H27         0.0331    2.9764    1.1089 H         1 <0>         0.0000
     66 H28         0.0624    3.8652    3.4664 H         1 <0>         0.0000
     67 H29         1.1971    5.1198    2.9787 H         1 <0>         0.0000
     68 H30        -1.6446    4.7374    1.7531 H         1 <0>         0.0000
     69 H31        -0.5114    5.9940    1.2605 H         1 <0>         0.0000
     70 H32         1.7206    2.1045    2.8256 H         1 <0>         0.0000
     71 H33         2.8686    3.3737    2.3403 H         1 <0>         0.0000
     72 H34        -0.5551    5.1306   -1.0970 H         1 <0>         0.0000
     73 H35        -1.6991    3.8493   -0.5983 H         1 <0>         0.0000
@<TRIPOS>BOND
     1    1    4 ar
     2    1    3 ar
     3    1   39 1
     4    2    6 ar
     5    2    5 ar
     6    2   40 1
     7    3    9 ar
     8    3   41 1
     9    4   10 ar
    10    4   42 1
    11    5   11 ar
    12    5   43 1
    13    6   12 ar
    14    6   44 1
    15    7    8 ar
    16    7   17 ar
    17    7   45 1
    18    8   18 ar
    19    8   46 1
    20    9   19 ar
    21    9   47 1
    22   10   19 ar
    23   10   48 1
    24   11   21 ar
    25   11   49 1
    26   12   21 ar
    27   12   50 1
    28   13   15 ar
    29   13   20 ar
    30   13   51 1
    31   14   16 ar
    32   14   20 ar
    33   14   52 1
    34   15   22 ar
    35   15   53 1
    36   16   22 ar
    37   16   54 1
    38   17   23 ar
    39   17   55 1
    40   18   34 ar
    41   18   56 1
    42   19   24 1
    43   20   24 1
    44   21   25 1
    45   22   37 1
    46   23   27 1
    47   23   34 ar
    48   24   25 2
    49   25   28 1
    50   26   28 1
    51   26   57 1
    52   26   58 1
    53   26   59 1
    54   27   38 1
    55   27   60 1
    56   27   61 1
    57   28   62 1
    58   28   63 1
    59   29   30 1
    60   29   31 1
    61   29   64 1
    62   29   65 1
    63   30   32 1
    64   30   66 1
    65   30   67 1
    66   31   33 1
    67   31   68 1
    68   31   69 1
    69   32   37 1
    70   32   70 1
    71   32   71 1
    72   33   38 1
    73   33   72 1
    74   33   73 1
    75   35   38 2
    76   36   38 2
