@<TRIPOS>MOLECULE
*****
   39    42     0     0     0
SMALL
NO_CHARGES

@<TRIPOS>ATOM
      1 C1          3.3723   -2.5226    5.7340 C.ar      1 <0>         0.0000
      2 C2         -4.4287    0.7825   -2.5625 C.ar      1 <0>         0.0000
      3 C3          3.1984   -1.1677    5.9326 C.ar      1 <0>         0.0000
      4 C4         -3.1342    1.0635   -2.1237 C.ar      1 <0>         0.0000
      5 C5          2.8148   -3.1629    4.6006 C.ar      1 <0>         0.0000
      6 C6          1.4983    1.6607    4.1694 C.ar      1 <0>         0.0000
      7 C7         -4.9994   -0.4465   -2.2177 C.ar      1 <0>         0.0000
      8 C8         -3.1223   -1.0820   -1.0701 C.ar      1 <0>         0.0000
      9 C9          2.4547   -0.4085    4.9942 C.ar      1 <0>         0.0000
     10 C10        -2.4472    0.1151   -1.3551 C.ar      1 <0>         0.0000
     11 C11         1.8814   -1.0257    3.8401 C.ar      1 <0>         0.0000
     12 C12         2.2309    0.9939    5.1287 C.ar      1 <0>         0.0000
     13 C13         2.0951   -2.4239    3.6920 C.ar      1 <0>         0.0000
     14 C14         0.9786    0.9362    3.0614 C.ar      1 <0>         0.0000
     15 C15        -0.5903   -0.1977    0.5016 C.3       1 <0>         0.0000
     16 C16        -0.6623    1.7474   -0.3114 C.3       1 <0>         0.0000
     17 C17        -1.0437    0.3533   -0.8757 C.3       1 <0>         0.0000
     18 C18         0.1323    1.6710    2.0404 C.3       1 <0>         0.0000
     19 N1         -4.3642   -1.3702   -1.4834 N.ar      1 <0>         0.0000
     20 N2          1.1564   -0.3602    2.8993 N.ar      1 <0>         0.0000
     21 N3          0.1514    1.0708    0.7234 N.3       1 <0>         0.0000
     22 O1          2.7740    1.6021    6.2221 O.3       1 <0>         0.0000
     23 F1          1.5654   -3.0395    2.6134 F         1 <0>         0.0000
     24 H1          3.9402   -3.1117    6.4483 H         1 <0>         0.0000
     25 H2         -4.9888    1.4981   -3.1583 H         1 <0>         0.0000
     26 H3          3.6225   -0.6708    6.7983 H         1 <0>         0.0000
     27 H4         -2.6619    2.0115   -2.3731 H         1 <0>         0.0000
     28 H5          2.9446   -4.2280    4.4337 H         1 <0>         0.0000
     29 H6          1.3210    2.7320    4.2468 H         1 <0>         0.0000
     30 H7         -6.0079   -0.6990   -2.5424 H         1 <0>         0.0000
     31 H8         -2.6322   -1.8498   -0.4722 H         1 <0>         0.0000
     32 H9         -1.4391   -0.3152    1.1939 H         1 <0>         0.0000
     33 H10         0.0274   -1.0952    0.5379 H         1 <0>         0.0000
     34 H11        -0.1056    2.4392   -0.9538 H         1 <0>         0.0000
     35 H12        -1.5457    2.2638    0.1015 H         1 <0>         0.0000
     36 H13        -0.3280    0.0566   -1.6496 H         1 <0>         0.0000
     37 H14        -0.8991    1.7403    2.4477 H         1 <0>         0.0000
     38 H15         0.4968    2.7013    1.9492 H         1 <0>         0.0000
     39 H16         2.5564    2.5484    6.2029 H         1 <0>         0.0000
@<TRIPOS>BOND
     1    1    3 ar
     2    1    5 ar
     3    1   24 1
     4    2    4 ar
     5    2    7 ar
     6    2   25 1
     7    3    9 ar
     8    3   26 1
     9    4   10 ar
    10    4   27 1
    11    5   13 ar
    12    5   28 1
    13    6   12 ar
    14    6   14 ar
    15    6   29 1
    16    7   19 ar
    17    7   30 1
    18    8   10 ar
    19    8   19 ar
    20    8   31 1
    21    9   11 ar
    22    9   12 ar
    23   10   17 1
    24   11   13 ar
    25   11   20 ar
    26   12   22 1
    27   13   23 1
    28   14   18 1
    29   14   20 ar
    30   15   17 1
    31   15   21 1
    32   15   32 1
    33   15   33 1
    34   16   17 1
    35   16   21 1
    36   16   34 1
    37   16   35 1
    38   17   36 1
    39   18   21 1
    40   18   37 1
    41   18   38 1
    42   22   39 1
