@<TRIPOS>MOLECULE
*****
   39    42     0     0     0
SMALL
NO_CHARGES

@<TRIPOS>ATOM
      1 C1          4.3439   -1.5279    6.1738 C.ar      1 <0>         0.0000
      2 C2         -5.0040   -0.5948   -1.0260 C.ar      1 <0>         0.0000
      3 C3          2.9682   -1.4248    6.1479 C.ar      1 <0>         0.0000
      4 C4         -3.7061   -0.7937   -0.5547 C.ar      1 <0>         0.0000
      5 C5          5.1311   -0.9406    5.1531 C.ar      1 <0>         0.0000
      6 C6          0.3817    0.1288    3.9375 C.ar      1 <0>         0.0000
      7 C7         -5.2185    0.3833   -2.0024 C.ar      1 <0>         0.0000
      8 C8         -2.9971    0.9374   -2.0427 C.ar      1 <0>         0.0000
      9 C9          2.3345   -0.7262    5.0887 C.ar      1 <0>         0.0000
     10 C10        -2.6614   -0.0136   -1.0672 C.ar      1 <0>         0.0000
     11 C11         3.1015   -0.1239    4.0423 C.ar      1 <0>         0.0000
     12 C12         0.9208   -0.5696    4.9982 C.ar      1 <0>         0.0000
     13 C13         4.5156   -0.2624    4.1281 C.ar      1 <0>         0.0000
     14 C14         1.2462    0.6708    2.9485 C.ar      1 <0>         0.0000
     15 C15        -0.9461   -0.3700    0.9023 C.3       1 <0>         0.0000
     16 C16        -0.2766    1.0069   -0.5440 C.3       1 <0>         0.0000
     17 C17        -1.2427   -0.2051   -0.6125 C.3       1 <0>         0.0000
     18 C18         0.6566    1.3903    1.7534 C.3       1 <0>         0.0000
     19 N1         -4.2370    1.1420   -2.5085 N.ar      1 <0>         0.0000
     20 N2          2.5614    0.5584    2.9955 N.ar      1 <0>         0.0000
     21 N3          0.2723    0.4470    0.7115 N.3       1 <0>         0.0000
     22 O1          0.1720   -1.1279    5.9929 O.3       1 <0>         0.0000
     23 F1          5.2719    0.2953    3.1612 F         1 <0>         0.0000
     24 H1          4.8374   -2.0619    6.9808 H         1 <0>         0.0000
     25 H2         -5.8364   -1.1822   -0.6479 H         1 <0>         0.0000
     26 H3          2.3594   -1.8700    6.9272 H         1 <0>         0.0000
     27 H4         -3.5050   -1.5466    0.2047 H         1 <0>         0.0000
     28 H5          6.2144   -1.0151    5.1633 H         1 <0>         0.0000
     29 H6         -0.6935    0.2730    3.8524 H         1 <0>         0.0000
     30 H7         -6.2187    0.5657   -2.3927 H         1 <0>         0.0000
     31 H8         -2.2211    1.5707   -2.4715 H         1 <0>         0.0000
     32 H9         -1.7156    0.1367    1.5114 H         1 <0>         0.0000
     33 H10        -0.7728   -1.3758    1.2984 H         1 <0>         0.0000
     34 H11         0.4569    1.1388   -1.3458 H         1 <0>         0.0000
     35 H12        -0.8255    1.9506   -0.3889 H         1 <0>         0.0000
     36 H13        -0.7741   -1.0216   -1.1712 H         1 <0>         0.0000
     37 H14        -0.2032    2.0114    2.0730 H         1 <0>         0.0000
     38 H15         1.4248    2.0514    1.3447 H         1 <0>         0.0000
     39 H16        -0.7672   -0.9468    5.8249 H         1 <0>         0.0000
@<TRIPOS>BOND
     1    1    3 ar
     2    1    5 ar
     3    1   24 1
     4    2    4 ar
     5    2    7 ar
     6    2   25 1
     7    3    9 ar
     8    3   26 1
     9    4   10 ar
    10    4   27 1
    11    5   13 ar
    12    5   28 1
    13    6   12 ar
    14    6   14 ar
    15    6   29 1
    16    7   19 ar
    17    7   30 1
    18    8   10 ar
    19    8   19 ar
    20    8   31 1
    21    9   11 ar
    22    9   12 ar
    23   10   17 1
    24   11   13 ar
    25   11   20 ar
    26   12   22 1
    27   13   23 1
    28   14   18 1
    29   14   20 ar
    30   15   17 1
    31   15   21 1
    32   15   32 1
    33   15   33 1
    34   16   17 1
    35   16   21 1
    36   16   34 1
    37   16   35 1
    38   17   36 1
    39   18   21 1
    40   18   37 1
    41   18   38 1
    42   22   39 1
