@<TRIPOS>MOLECULE
*****
   61    64     0     0     0
SMALL
NO_CHARGES

@<TRIPOS>ATOM
      1 C1         -3.6134    3.6965   -7.3748 C.ar      1 <0>         0.0000
      2 C2         -3.3962    3.6677   -6.0024 C.ar      1 <0>         0.0000
      3 C3         -2.3292   -2.4341   -1.3865 C.ar      1 <0>         0.0000
      4 C4         -4.8683    4.0277   -7.9074 C.ar      1 <0>         0.0000
      5 C5         -2.2269   -1.0652   -1.6310 C.ar      1 <0>         0.0000
      6 C6         -5.7161    4.3086   -5.6488 C.ar      1 <0>         0.0000
      7 C7         -2.7837   -0.5821    0.6875 C.ar      1 <0>         0.0000
      8 C8         -4.4594    3.9776   -5.1312 C.ar      1 <0>         0.0000
      9 C9         -2.6812   -2.8888   -0.1091 C.ar      1 <0>         0.0000
     10 C10        -2.8910   -1.9570    0.9124 C.ar      1 <0>         0.0000
     11 C11        -5.9214    4.3344   -7.0352 C.ar      1 <0>         0.0000
     12 C12        -2.4574   -0.1361   -0.6019 C.ar      1 <0>         0.0000
     13 C13        -3.4336    3.7986   -1.7004 C.2       1 <0>         0.0000
     14 C14        -4.7529    4.1332   -1.5767 C.2       1 <0>         0.0000
     15 C15        -4.2288    3.9489   -3.6901 C.2       1 <0>         0.0000
     16 C16        -2.7953   -5.5394   -1.7828 C.2       1 <0>         0.0000
     17 C17        -3.1790   -2.6585    2.2209 C.3       1 <0>         0.0000
     18 C18        -3.5709   -4.0828    1.7709 C.3       1 <0>         0.0000
     19 C19        -2.8454   -4.3100    0.4166 C.3       1 <0>         0.0000
     20 C20        -5.6675    4.3911   -0.4324 C.3       1 <0>         0.0000
     21 C21        -4.6661   -7.6119   -0.7399 C.3       1 <0>         0.0000
     22 C22        -7.4528    4.7155   -8.8342 C.3       1 <0>         0.0000
     23 C23        -2.4214    3.5433   -0.6232 C.3       1 <0>         0.0000
     24 C24        -3.8869   -6.6408    0.1540 C.3       1 <0>         0.0000
     25 C25        -2.5654    2.1725    0.0372 C.3       1 <0>         0.0000
     26 C26        -3.6063   -5.2781   -0.5144 C.3       1 <0>         0.0000
     27 N1         -3.1203    3.6879   -3.0527 N.2       1 <0>         0.0000
     28 O1         -1.6735   -5.9931   -1.7752 O.2       1 <0>         0.0000
     29 O2         -5.2759    4.2305   -2.8506 O.3       1 <0>         0.0000
     30 O3         -3.4042   -5.2634   -2.9743 O.3       1 <0>         0.0000
     31 O4         -7.1875    4.6722   -7.4361 O.3       1 <0>         0.0000
     32 O5         -2.3314    1.1803   -0.9563 O.3       1 <0>         0.0000
     33 H1         -2.7987    3.4581   -8.0537 H         1 <0>         0.0000
     34 H2         -2.4275    3.4109   -5.5875 H         1 <0>         0.0000
     35 H3         -2.1184   -3.1224   -2.1987 H         1 <0>         0.0000
     36 H4         -5.0055    4.0415   -8.9825 H         1 <0>         0.0000
     37 H5         -1.9654   -0.6875   -2.6150 H         1 <0>         0.0000
     38 H6         -6.5454    4.5498   -4.9923 H         1 <0>         0.0000
     39 H7         -2.9504    0.1144    1.5025 H         1 <0>         0.0000
     40 H8         -2.2722   -2.6802    2.8400 H         1 <0>         0.0000
     41 H9         -3.9607   -2.1709    2.8127 H         1 <0>         0.0000
     42 H10        -3.3267   -4.8451    2.5149 H         1 <0>         0.0000
     43 H11        -4.6549   -4.1170    1.6048 H         1 <0>         0.0000
     44 H12        -1.8548   -4.7494    0.5940 H         1 <0>         0.0000
     45 H13        -6.1524    5.3693   -0.5236 H         1 <0>         0.0000
     46 H14        -6.4560    3.6323   -0.3675 H         1 <0>         0.0000
     47 H15        -5.1031    4.3752    0.5032 H         1 <0>         0.0000
     48 H16        -5.6293   -7.1857   -1.0457 H         1 <0>         0.0000
     49 H17        -4.8731   -8.5458   -0.2078 H         1 <0>         0.0000
     50 H18        -4.1073   -7.8666   -1.6460 H         1 <0>         0.0000
     51 H19        -8.5014    5.0004   -8.9302 H         1 <0>         0.0000
     52 H20        -7.2990    3.7350   -9.3018 H         1 <0>         0.0000
     53 H21        -6.8264    5.4624   -9.3379 H         1 <0>         0.0000
     54 H22        -1.4219    3.6277   -1.0578 H         1 <0>         0.0000
     55 H23        -2.5025    4.3009    0.1652 H         1 <0>         0.0000
     56 H24        -2.9275   -7.0848    0.4407 H         1 <0>         0.0000
     57 H25        -4.4497   -6.4654    1.0756 H         1 <0>         0.0000
     58 H26        -1.8374    2.0686    0.8541 H         1 <0>         0.0000
     59 H27        -3.5744    2.0545    0.4560 H         1 <0>         0.0000
     60 H28        -4.5687   -4.8113   -0.7702 H         1 <0>         0.0000
     61 H29        -4.2777   -4.8719   -2.8069 H         1 <0>         0.0000
@<TRIPOS>BOND
     1    1    2 ar
     2    1    4 ar
     3    1   33 1
     4    2    8 ar
     5    2   34 1
     6    3    5 ar
     7    3    9 ar
     8    3   35 1
     9    4   11 ar
    10    4   36 1
    11    5   12 ar
    12    5   37 1
    13    6    8 ar
    14    6   11 ar
    15    6   38 1
    16    7   10 ar
    17    7   12 ar
    18    7   39 1
    19    8   15 1
    20    9   10 ar
    21    9   19 1
    22   10   17 1
    23   11   31 1
    24   12   32 1
    25   13   14 2
    26   13   23 1
    27   13   27 1
    28   14   20 1
    29   14   29 1
    30   15   27 2
    31   15   29 1
    32   16   26 1
    33   16   28 2
    34   16   30 1
    35   17   18 1
    36   17   40 1
    37   17   41 1
    38   18   19 1
    39   18   42 1
    40   18   43 1
    41   19   26 1
    42   19   44 1
    43   20   45 1
    44   20   46 1
    45   20   47 1
    46   21   24 1
    47   21   48 1
    48   21   49 1
    49   21   50 1
    50   22   31 1
    51   22   51 1
    52   22   52 1
    53   22   53 1
    54   23   25 1
    55   23   54 1
    56   23   55 1
    57   24   26 1
    58   24   56 1
    59   24   57 1
    60   25   32 1
    61   25   58 1
    62   25   59 1
    63   26   60 1
    64   30   61 1
