@<TRIPOS>MOLECULE
*****
   56    58     0     0     0
SMALL
NO_CHARGES

@<TRIPOS>ATOM
      1 C1          6.4368   -4.5706    3.4075 C.ar      1 <0>         0.0000
      2 C2          6.9500   -3.9429    4.5285 C.ar      1 <0>         0.0000
      3 C3          6.8756    1.7337    4.5322 C.ar      1 <0>         0.0000
      4 C4          5.4461    1.6648    2.5391 C.ar      1 <0>         0.0000
      5 C5          6.1090    0.7317    5.1348 C.ar      1 <0>         0.0000
      6 C6          4.6810    0.6710    3.1579 C.ar      1 <0>         0.0000
      7 C7          4.2615   -1.7686   -0.7943 C.ar      1 <0>         0.0000
      8 C8          2.0835   -2.6862   -0.3118 C.ar      1 <0>         0.0000
      9 C9          4.4890   -3.1846    3.4671 C.ar      1 <0>         0.0000
     10 C10         5.1993   -4.1978    2.8309 C.ar      1 <0>         0.0000
     11 C11         4.8547   -2.7739   -0.0239 C.ar      1 <0>         0.0000
     12 C12         2.6628   -3.7072    0.4541 C.ar      1 <0>         0.0000
     13 C13         4.0619   -3.7600    0.6069 C.ar      1 <0>         0.0000
     14 C14         6.2919   -2.8235    5.1814 C.ar      1 <0>         0.0000
     15 C15         2.8696   -1.7095   -0.9307 C.ar      1 <0>         0.0000
     16 C16         6.5245    2.1739    3.2571 C.ar      1 <0>         0.0000
     17 C17         5.0091    0.2214    4.4413 C.ar      1 <0>         0.0000
     18 C18         4.9821   -2.5446    4.6128 C.ar      1 <0>         0.0000
     19 C19         3.8095    1.2325   -1.3770 C.2       1 <0>         0.0000
     20 C20         6.3581   -2.7638    0.1458 C.3       1 <0>         0.0000
     21 C21         1.7520   -4.7021    1.1480 C.3       1 <0>         0.0000
     22 C22         1.7775    0.7654    0.1653 C.3       1 <0>         0.0000
     23 C23         1.4649    1.3916   -2.2591 C.3       1 <0>         0.0000
     24 C24         4.7172   -4.7909    1.5119 C.3       1 <0>         0.0000
     25 C25         2.3416    0.6508   -1.2494 C.3       1 <0>         0.0000
     26 O1          6.8403   -2.1608    6.1113 O.3       1 <0>         0.0000
     27 O2          4.4026    0.9790   -2.4573 O.co2     1 <0>         0.0000
     28 O3          4.2025    1.9297   -0.3988 O.co2     1 <0>         0.0000
     29 O4          4.0605   -0.9740    6.6289 O.2       1 <0>         0.0000
     30 O5          2.7471   -1.1366    4.4663 O.2       1 <0>         0.0000
     31 O6          2.2364   -0.7509   -1.6865 O.3       1 <0>         0.0000
     32 F1          7.2961    3.1564    2.6901 F         1 <0>         0.0000
     33 S1          4.0590   -1.1328    5.1610 S.o2      1 <0>         0.0000
     34 H1          7.0243   -5.3546    2.9234 H         1 <0>         0.0000
     35 H2          7.9265   -4.2195    4.9236 H         1 <0>         0.0000
     36 H3          7.7440    2.1588    5.0283 H         1 <0>         0.0000
     37 H4          5.2034    1.9957    1.5287 H         1 <0>         0.0000
     38 H5          6.3675    0.3129    6.1014 H         1 <0>         0.0000
     39 H6          3.8334    0.2410    2.6356 H         1 <0>         0.0000
     40 H7          4.8645   -1.0143   -1.2883 H         1 <0>         0.0000
     41 H8          1.0027   -2.6142   -0.4110 H         1 <0>         0.0000
     42 H9          3.5504   -2.8320    3.0501 H         1 <0>         0.0000
     43 H10         6.6331   -2.6328    1.1973 H         1 <0>         0.0000
     44 H11         6.8133   -3.7065   -0.1866 H         1 <0>         0.0000
     45 H12         6.8032   -1.9485   -0.4303 H         1 <0>         0.0000
     46 H13         1.9027   -5.7265    0.7827 H         1 <0>         0.0000
     47 H14         1.9197   -4.7159    2.2307 H         1 <0>         0.0000
     48 H15         0.7025   -4.4413    0.9790 H         1 <0>         0.0000
     49 H16         0.7486    0.3828    0.2001 H         1 <0>         0.0000
     50 H17         1.7951    1.8081    0.4886 H         1 <0>         0.0000
     51 H18         2.3802    0.1956    0.8754 H         1 <0>         0.0000
     52 H19         0.4341    1.0143   -2.2300 H         1 <0>         0.0000
     53 H20         1.8791    1.2484   -3.2604 H         1 <0>         0.0000
     54 H21         1.4593    2.4628   -2.0296 H         1 <0>         0.0000
     55 H22         5.5832   -5.2305    0.9998 H         1 <0>         0.0000
     56 H23         4.0262   -5.6245    1.6858 H         1 <0>         0.0000
@<TRIPOS>BOND
     1    1    2 ar
     2    1   10 ar
     3    1   34 1
     4    2   14 ar
     5    2   35 1
     6    3    5 ar
     7    3   16 ar
     8    3   36 1
     9    4    6 ar
    10    4   16 ar
    11    4   37 1
    12    5   17 ar
    13    5   38 1
    14    6   17 ar
    15    6   39 1
    16    7   11 ar
    17    7   15 ar
    18    7   40 1
    19    8   12 ar
    20    8   15 ar
    21    8   41 1
    22    9   10 ar
    23    9   18 ar
    24    9   42 1
    25   10   24 1
    26   11   13 ar
    27   11   20 1
    28   12   13 ar
    29   12   21 1
    30   13   24 1
    31   14   18 ar
    32   14   26 1
    33   15   31 1
    34   16   32 1
    35   17   33 1
    36   18   33 1
    37   19   25 1
    38   19   27 1
    39   19   28 2
    40   20   43 1
    41   20   44 1
    42   20   45 1
    43   21   46 1
    44   21   47 1
    45   21   48 1
    46   22   25 1
    47   22   49 1
    48   22   50 1
    49   22   51 1
    50   23   25 1
    51   23   52 1
    52   23   53 1
    53   23   54 1
    54   24   55 1
    55   24   56 1
    56   25   31 1
    57   29   33 2
    58   30   33 2
