@<TRIPOS>MOLECULE
*****
   39    42     0     0     0
SMALL
NO_CHARGES

@<TRIPOS>ATOM
      1 C1         -3.5827   -5.2591    5.1542 C.ar      1 <0>         0.0000
      2 C2          4.6271    0.6272   -0.8440 C.ar      1 <0>         0.0000
      3 C3         -2.7996   -5.2303    4.0180 C.ar      1 <0>         0.0000
      4 C4          3.6787    1.1760    0.0229 C.ar      1 <0>         0.0000
      5 C5         -4.0911   -4.0600    5.7099 C.ar      1 <0>         0.0000
      6 C6         -1.4518   -2.6383    1.6811 C.ar      1 <0>         0.0000
      7 C7          4.2916   -0.5260   -1.5563 C.ar      1 <0>         0.0000
      8 C8          2.2027   -0.5927   -0.6177 C.ar      1 <0>         0.0000
      9 C9         -2.5016   -3.9902    3.3986 C.ar      1 <0>         0.0000
     10 C10         2.4283    0.5629    0.1531 C.ar      1 <0>         0.0000
     11 C11        -3.0012   -2.7627    3.9353 C.ar      1 <0>         0.0000
     12 C12        -1.6970   -3.8808    2.2252 C.ar      1 <0>         0.0000
     13 C13        -3.7998   -2.8584    5.1086 C.ar      1 <0>         0.0000
     14 C14        -2.0069   -1.4903    2.3054 C.ar      1 <0>         0.0000
     15 C15         0.7190    0.0681    2.0363 C.3       1 <0>         0.0000
     16 C16        -0.0527    1.2574    0.4735 C.3       1 <0>         0.0000
     17 C17         1.3758    1.1089    1.0801 C.3       1 <0>         0.0000
     18 C18        -1.7645   -0.1227    1.6973 C.3       1 <0>         0.0000
     19 N1          3.0994   -1.1337   -1.4514 N.ar      1 <0>         0.0000
     20 N2         -2.7497   -1.5361    3.3966 N.ar      1 <0>         0.0000
     21 N3         -0.4385   -0.0179    1.1156 N.3       1 <0>         0.0000
     22 O1         -1.2075   -5.0413    1.7026 O.3       1 <0>         0.0000
     23 F1         -4.2865   -1.7196    5.6451 F         1 <0>         0.0000
     24 H1         -3.8164   -6.2053    5.6339 H         1 <0>         0.0000
     25 H2          5.6066    1.0813   -0.9659 H         1 <0>         0.0000
     26 H3         -2.4059   -6.1443    3.5870 H         1 <0>         0.0000
     27 H4          3.9089    2.0732    0.5944 H         1 <0>         0.0000
     28 H5         -4.7078   -4.0693    6.6036 H         1 <0>         0.0000
     29 H6         -0.8371   -2.5079    0.7942 H         1 <0>         0.0000
     30 H7          5.0061   -0.9826   -2.2396 H         1 <0>         0.0000
     31 H8          1.2403   -1.0980   -0.5495 H         1 <0>         0.0000
     32 H9          1.2518   -0.8755    2.1927 H         1 <0>         0.0000
     33 H10         0.4607    0.5063    3.0129 H         1 <0>         0.0000
     34 H11        -0.5810    2.1306    0.8880 H         1 <0>         0.0000
     35 H12        -0.1374    1.2644   -0.6186 H         1 <0>         0.0000
     36 H13         1.7484    2.0060    1.5783 H         1 <0>         0.0000
     37 H14        -2.4988    0.0436    0.8976 H         1 <0>         0.0000
     38 H15        -1.9536    0.6335    2.4772 H         1 <0>         0.0000
     39 H16        -0.6760   -4.8360    0.9156 H         1 <0>         0.0000
@<TRIPOS>BOND
     1    1    3 ar
     2    1    5 ar
     3    1   24 1
     4    2    4 ar
     5    2    7 ar
     6    2   25 1
     7    3    9 ar
     8    3   26 1
     9    4   10 ar
    10    4   27 1
    11    5   13 ar
    12    5   28 1
    13    6   12 ar
    14    6   14 ar
    15    6   29 1
    16    7   19 ar
    17    7   30 1
    18    8   10 ar
    19    8   19 ar
    20    8   31 1
    21    9   11 ar
    22    9   12 ar
    23   10   17 1
    24   11   13 ar
    25   11   20 ar
    26   12   22 1
    27   13   23 1
    28   14   18 1
    29   14   20 ar
    30   15   17 1
    31   15   21 1
    32   15   32 1
    33   15   33 1
    34   16   17 1
    35   16   21 1
    36   16   34 1
    37   16   35 1
    38   17   36 1
    39   18   21 1
    40   18   37 1
    41   18   38 1
    42   22   39 1
