@<TRIPOS>MOLECULE
*****
   29    30     0     0     0
SMALL
NO_CHARGES

@<TRIPOS>ATOM
      1 C1          1.6300   -1.6753   -0.2477 C.ar      1 <0>         0.0000
      2 C2          2.1415   -0.4175    0.0902 C.ar      1 <0>         0.0000
      3 C3          1.6208   -2.7012    0.7041 C.ar      1 <0>         0.0000
      4 C4          2.6338   -0.1916    1.3752 C.ar      1 <0>         0.0000
      5 C5          2.0996   -2.4739    1.9936 C.ar      1 <0>         0.0000
      6 C6          1.8593   -2.9118    7.9891 C.ar      1 <0>         0.0000
      7 C7          1.6220   -2.6008    9.3268 C.ar      1 <0>         0.0000
      8 C8          0.3070   -1.1579    7.3182 C.ar      1 <0>         0.0000
      9 C9          2.5963   -1.2063    2.3512 C.ar      1 <0>         0.0000
     10 C10         1.2017   -2.1777    7.0020 C.ar      1 <0>         0.0000
     11 C11         0.7380   -1.5706    9.6673 C.ar      1 <0>         0.0000
     12 C12         0.0751   -0.8478    8.6599 C.ar      1 <0>         0.0000
     13 C13         3.1224   -0.8963    3.6854 C.2       1 <0>         0.0000
     14 C14         2.8044   -1.3884    4.8955 C.2       1 <0>         0.0000
     15 O1          2.0489   -3.9260    5.2037 O.2       1 <0>         0.0000
     16 O2          0.2866   -2.2112    4.5137 O.2       1 <0>         0.0000
     17 S1          1.5003   -2.5594    5.2655 S.o2      1 <0>         0.0000
     18 Cl1         0.4769   -1.2164   11.3519 Cl        1 <0>         0.0000
     19 Cl2        -1.0443    0.4307    9.0454 Cl        1 <0>         0.0000
     20 H1          1.2528   -1.8587   -1.2504 H         1 <0>         0.0000
     21 H2          2.1630    0.3807   -0.6470 H         1 <0>         0.0000
     22 H3          1.2431   -3.6850    0.4398 H         1 <0>         0.0000
     23 H4          3.0365    0.7849    1.6349 H         1 <0>         0.0000
     24 H5          2.1120   -3.2912    2.7059 H         1 <0>         0.0000
     25 H6          2.5269   -3.7214    7.7118 H         1 <0>         0.0000
     26 H7          2.1138   -3.1569   10.1183 H         1 <0>         0.0000
     27 H8         -0.2156   -0.6217    6.5325 H         1 <0>         0.0000
     28 H9          3.9012   -0.1328    3.7014 H         1 <0>         0.0000
     29 H10         3.3370   -1.0758    5.7887 H         1 <0>         0.0000
@<TRIPOS>BOND
     1    1    3 ar
     2    1    2 ar
     3    1   20 1
     4    2    4 ar
     5    2   21 1
     6    3    5 ar
     7    3   22 1
     8    4    9 ar
     9    4   23 1
    10    5    9 ar
    11    5   24 1
    12    6    7 ar
    13    6   10 ar
    14    6   25 1
    15    7   11 ar
    16    7   26 1
    17    8   10 ar
    18    8   12 ar
    19    8   27 1
    20    9   13 1
    21   10   17 1
    22   11   12 ar
    23   11   18 1
    24   12   19 1
    25   13   14 2
    26   13   28 1
    27   14   17 1
    28   14   29 1
    29   15   17 2
    30   16   17 2
