@<TRIPOS>MOLECULE
*****
   26    26     0     0     0
SMALL
NO_CHARGES

@<TRIPOS>ATOM
      1 C1          4.4797    0.9272    1.8723 C.2       1 <0>         0.0000
      2 C2          5.3747    0.9258    2.9913 C.2       1 <0>         0.0000
      3 C3          4.0573   -0.3304    1.5386 C.2       1 <0>         0.0000
      4 C4          5.6377   -0.3082    3.5237 C.2       1 <0>         0.0000
      5 C5          6.4871   -0.6894    4.6980 C.3       1 <0>         0.0000
      6 C6         -0.0597   -1.4865    2.4397 C.3       1 <0>         0.0000
      7 C7          0.5535    0.7144    1.3651 C.3       1 <0>         0.0000
      8 C8          3.0839   -0.7388    0.4572 C.3       1 <0>         0.0000
      9 C9          1.0849   -0.6009    1.9420 C.3       1 <0>         0.0000
     10 N1          1.8304   -1.3497    0.9135 N.3       1 <0>         0.0000
     11 S1          4.7590   -1.5177    2.6144 S.3       1 <0>         0.0000
     12 Br1         6.1248    2.5463    3.6734 Br        1 <0>         0.0000
     13 H1          4.1706    1.8259    1.3496 H         1 <0>         0.0000
     14 H2          5.8760   -0.8598    5.5920 H         1 <0>         0.0000
     15 H3          7.0555   -1.6033    4.5012 H         1 <0>         0.0000
     16 H4          7.1948    0.1115    4.9235 H         1 <0>         0.0000
     17 H5         -0.7358   -1.7387    1.6158 H         1 <0>         0.0000
     18 H6          0.3209   -2.4220    2.8676 H         1 <0>         0.0000
     19 H7         -0.6340   -0.9752    3.2186 H         1 <0>         0.0000
     20 H8         -0.0579    0.5206    0.4772 H         1 <0>         0.0000
     21 H9          1.3635    1.3942    1.0838 H         1 <0>         0.0000
     22 H10        -0.0614    1.2322    2.1083 H         1 <0>         0.0000
     23 H11         2.8546    0.1522   -0.1348 H         1 <0>         0.0000
     24 H12         3.5585   -1.4497   -0.2280 H         1 <0>         0.0000
     25 H13         1.7310   -0.3573    2.8025 H         1 <0>         0.0000
     26 H14         2.0304   -2.2818    1.2721 H         1 <0>         0.0000
@<TRIPOS>BOND
     1    1    2 1
     2    1    3 2
     3    1   13 1
     4    2    4 2
     5    2   12 1
     6    3    8 1
     7    3   11 1
     8    4    5 1
     9    4   11 1
    10    5   14 1
    11    5   15 1
    12    5   16 1
    13    6    9 1
    14    6   17 1
    15    6   18 1
    16    6   19 1
    17    7    9 1
    18    7   20 1
    19    7   21 1
    20    7   22 1
    21    8   10 1
    22    8   23 1
    23    8   24 1
    24    9   10 1
    25    9   25 1
    26   10   26 1
