@<TRIPOS>MOLECULE
*****
   56    58     0     0     0
SMALL
NO_CHARGES

@<TRIPOS>ATOM
      1 C1          1.2370   -0.6018   -6.5115 C.ar      1 <0>         0.0000
      2 C2          1.8206   -2.8706   -7.1213 C.ar      1 <0>         0.0000
      3 C3          0.1130   -0.6765   -7.3432 C.ar      1 <0>         0.0000
      4 C4          0.7137   -2.9380   -7.9628 C.ar      1 <0>         0.0000
      5 C5          2.0978   -1.7031   -6.3871 C.ar      1 <0>         0.0000
      6 C6         -0.1506   -1.8413   -8.0599 C.ar      1 <0>         0.0000
      7 C7         -3.2601   -3.3941   -5.9831 C.3       1 <0>         0.0000
      8 C8         -2.8480   -2.1429   -5.2008 C.3       1 <0>         0.0000
      9 C9         -2.0642   -4.3383   -6.1383 C.3       1 <0>         0.0000
     10 C10        -2.2438   -2.5044   -3.8485 C.3       1 <0>         0.0000
     11 C11        -1.4299   -4.6754   -4.7949 C.3       1 <0>         0.0000
     12 C12         1.8691   -4.0018   -1.5736 C.3       1 <0>         0.0000
     13 C13         1.1203   -3.8664   -2.8984 C.3       1 <0>         0.0000
     14 C14         2.0883   -1.6294   -2.7339 C.3       1 <0>         0.0000
     15 C15         1.1245   -0.4399   -2.7862 C.3       1 <0>         0.0000
     16 C16         4.1581   -0.1948   -2.3407 C.3       1 <0>         0.0000
     17 C17         4.4346   -2.5530   -3.1583 C.3       1 <0>         0.0000
     18 C18        -0.3976   -3.7740   -2.7009 C.3       1 <0>         0.0000
     19 C19         3.5553   -0.7548   -4.6658 C.3       1 <0>         0.0000
     20 C20         3.5397   -1.3030   -3.2183 C.3       1 <0>         0.0000
     21 N1         -1.0545   -3.4276   -4.0166 N.4       1 <0>         0.0000
     22 O1          1.5563   -2.6901   -3.5739 O.3       1 <0>         0.0000
     23 O2          3.2352   -1.7499   -5.6438 O.3       1 <0>         0.0000
     24 S1          2.0508   -2.2908   -0.9806 S.3       1 <0>         0.0000
     25 Cl1        -1.5745   -1.9388   -9.0820 Cl        1 <0>         0.0000
     26 H1          1.4389    0.3389   -6.0138 H         1 <0>         0.0000
     27 H2          2.5099   -3.7061   -7.0440 H         1 <0>         0.0000
     28 H3         -0.5392    0.1854   -7.4476 H         1 <0>         0.0000
     29 H4          0.5265   -3.8332   -8.5485 H         1 <0>         0.0000
     30 H5         -3.6340   -3.1098   -6.9690 H         1 <0>         0.0000
     31 H6         -4.0783   -3.9056   -5.4606 H         1 <0>         0.0000
     32 H7         -2.1226   -1.5583   -5.7786 H         1 <0>         0.0000
     33 H8         -3.7075   -1.4908   -5.0184 H         1 <0>         0.0000
     34 H9         -2.3646   -5.2809   -6.6061 H         1 <0>         0.0000
     35 H10        -1.3126   -3.8877   -6.7898 H         1 <0>         0.0000
     36 H11        -1.8819   -1.6249   -3.3129 H         1 <0>         0.0000
     37 H12        -2.9567   -3.0345   -3.2105 H         1 <0>         0.0000
     38 H13        -2.1237   -5.2247   -4.1527 H         1 <0>         0.0000
     39 H14        -0.5179   -5.2646   -4.9097 H         1 <0>         0.0000
     40 H15         1.3064   -4.5785   -0.8352 H         1 <0>         0.0000
     41 H16         2.8394   -4.4752   -1.7280 H         1 <0>         0.0000
     42 H17         1.3652   -4.7058   -3.5586 H         1 <0>         0.0000
     43 H18         0.1432   -0.7382   -2.4120 H         1 <0>         0.0000
     44 H19         1.0066   -0.0746   -3.8073 H         1 <0>         0.0000
     45 H20         1.4722    0.3827   -2.1585 H         1 <0>         0.0000
     46 H21         5.2082   -0.0528   -2.6111 H         1 <0>         0.0000
     47 H22         3.6561    0.7696   -2.4628 H         1 <0>         0.0000
     48 H23         4.1279   -0.4673   -1.2828 H         1 <0>         0.0000
     49 H24         5.4226   -2.3186   -3.5652 H         1 <0>         0.0000
     50 H25         4.0216   -3.3694   -3.7532 H         1 <0>         0.0000
     51 H26         4.5756   -2.8839   -2.1265 H         1 <0>         0.0000
     52 H27        -0.6262   -2.9827   -1.9865 H         1 <0>         0.0000
     53 H28        -0.8272   -4.7118   -2.3436 H         1 <0>         0.0000
     54 H29         4.5786   -0.4405   -4.8903 H         1 <0>         0.0000
     55 H30         2.9240    0.1282   -4.7615 H         1 <0>         0.0000
     56 H31        -0.3391   -2.9060   -4.5505 H         1 <0>         0.0000
@<TRIPOS>BOND
     1    1    3 ar
     2    1    5 ar
     3    1   26 1
     4    2    4 ar
     5    2    5 ar
     6    2   27 1
     7    3    6 ar
     8    3   28 1
     9    4    6 ar
    10    4   29 1
    11    5   23 1
    12    6   25 1
    13    7    9 1
    14    7    8 1
    15    7   30 1
    16    7   31 1
    17    8   10 1
    18    8   32 1
    19    8   33 1
    20    9   11 1
    21    9   34 1
    22    9   35 1
    23   10   21 1
    24   10   36 1
    25   10   37 1
    26   11   21 1
    27   11   38 1
    28   11   39 1
    29   12   13 1
    30   12   24 1
    31   12   40 1
    32   12   41 1
    33   13   18 1
    34   13   22 1
    35   13   42 1
    36   14   15 1
    37   14   20 1
    38   14   22 1
    39   14   24 1
    40   15   43 1
    41   15   44 1
    42   15   45 1
    43   16   20 1
    44   16   46 1
    45   16   47 1
    46   16   48 1
    47   17   20 1
    48   17   49 1
    49   17   50 1
    50   17   51 1
    51   18   21 1
    52   18   52 1
    53   18   53 1
    54   19   20 1
    55   19   23 1
    56   19   54 1
    57   19   55 1
    58   21   56 1
