@<TRIPOS>MOLECULE
*****
   21    22     0     0     0
SMALL
NO_CHARGES

@<TRIPOS>ATOM
      1 C1          1.5189    1.0305    1.0396 C.ar      1 <0>         0.0000
      2 C2          1.7991    1.8367    2.1236 C.ar      1 <0>         0.0000
      3 C3          0.1986    0.5786    0.7874 C.ar      1 <0>         0.0000
      4 C4          0.9538    3.0637    4.1370 C.ar      1 <0>         0.0000
      5 C5         -0.1220    3.3956    4.9317 C.ar      1 <0>         0.0000
      6 C6         -1.6052    2.2103    3.6440 C.ar      1 <0>         0.0000
      7 C7          0.7549    2.2328    3.0024 C.ar      1 <0>         0.0000
      8 C8         -0.5787    1.7855    2.7538 C.ar      1 <0>         0.0000
      9 C9         -0.8304    0.9459    1.6299 C.ar      1 <0>         0.0000
     10 C10        -2.4367   -0.7627    1.9118 C.3       1 <0>         0.0000
     11 N1         -1.3999    2.9811    4.6963 N.ar      1 <0>         0.0000
     12 O1         -2.1240    0.5328    1.3808 O.3       1 <0>         0.0000
     13 H1          2.3162    0.7340    0.3630 H         1 <0>         0.0000
     14 H2          2.8136    2.1781    2.3129 H         1 <0>         0.0000
     15 H3         -0.0169   -0.0495   -0.0725 H         1 <0>         0.0000
     16 H4          1.9478    3.4342    4.3744 H         1 <0>         0.0000
     17 H5          0.0107    4.0283    5.8070 H         1 <0>         0.0000
     18 H6         -2.6300    1.8978    3.4538 H         1 <0>         0.0000
     19 H7         -3.4805   -0.9563    1.6576 H         1 <0>         0.0000
     20 H8         -2.3133   -0.7800    3.0018 H         1 <0>         0.0000
     21 H9         -1.7990   -1.5346    1.4642 H         1 <0>         0.0000
@<TRIPOS>BOND
     1    1    2 ar
     2    1    3 ar
     3    1   13 1
     4    2    7 ar
     5    2   14 1
     6    3    9 ar
     7    3   15 1
     8    4    5 ar
     9    4    7 ar
    10    4   16 1
    11    5   11 ar
    12    5   17 1
    13    6    8 ar
    14    6   11 ar
    15    6   18 1
    16    7    8 ar
    17    8    9 ar
    18    9   12 1
    19   10   12 1
    20   10   19 1
    21   10   20 1
    22   10   21 1
