@<TRIPOS>MOLECULE
*****
   39    41     0     0     0
SMALL
NO_CHARGES

@<TRIPOS>ATOM
      1 C1          2.6417   -9.3449    1.8826 C.ar      1 <0>         0.0000
      2 C2          2.7673   -8.8736    0.5670 C.ar      1 <0>         0.0000
      3 C3          1.5455   -8.9832    2.6734 C.ar      1 <0>         0.0000
      4 C4          1.7992   -8.0278    0.0095 C.ar      1 <0>         0.0000
      5 C5         -3.6032   -9.0751    2.1564 C.2       1 <0>         0.0000
      6 C6          0.5808   -8.1421    2.1222 C.ar      1 <0>         0.0000
      7 C7         -4.0905   -8.0260    1.3005 C.2       1 <0>         0.0000
      8 C8          0.7232   -7.6837    0.8156 C.ar      1 <0>         0.0000
      9 C9         -4.0756  -10.2689    1.6681 C.2       1 <0>         0.0000
     10 C10        -4.8493   -8.6318    0.2934 C.2       1 <0>         0.0000
     11 C11        -0.6509   -7.6504    2.8035 C.2       1 <0>         0.0000
     12 C12        -3.8215   -6.5985    1.4090 C.2       1 <0>         0.0000
     13 C13        -3.8998  -11.6594    2.1902 C.3       1 <0>         0.0000
     14 C14        -5.5369   -8.0336   -0.8902 C.3       1 <0>         0.0000
     15 C15        -5.5258  -10.9760   -0.2781 C.3       1 <0>         0.0000
     16 C16        -2.6146   -6.1628    2.2666 C.3       1 <0>         0.0000
     17 N1         -4.8191   -9.9860    0.5189 N.pl3     1 <0>         0.0000
     18 N2         -1.3736   -6.8548    1.9276 N.am      1 <0>         0.0000
     19 O1         -0.9898   -7.9045    3.9509 O.2       1 <0>         0.0000
     20 O2         -4.4851   -5.7134    0.8700 O.2       1 <0>         0.0000
     21 O3         -0.2419   -5.2345    0.2345 O.2       1 <0>         0.0000
     22 O4         -1.4825   -7.2444   -0.6571 O.2       1 <0>         0.0000
     23 S1         -0.6497   -6.6306    0.3728 S.o2      1 <0>         0.0000
     24 H1          3.4075   -9.9986    2.2902 H         1 <0>         0.0000
     25 H2          3.6266   -9.1665   -0.0295 H         1 <0>         0.0000
     26 H3          1.4306   -9.3365    3.6937 H         1 <0>         0.0000
     27 H4          1.8886   -7.6588   -1.0077 H         1 <0>         0.0000
     28 H5         -3.0088   -8.9640    3.0533 H         1 <0>         0.0000
     29 H6         -4.8568  -12.1446    2.4183 H         1 <0>         0.0000
     30 H7         -3.3606  -12.3058    1.4860 H         1 <0>         0.0000
     31 H8         -3.3179  -11.6232    3.1140 H         1 <0>         0.0000
     32 H9         -5.1220   -8.4182   -1.8302 H         1 <0>         0.0000
     33 H10        -6.6121   -8.2510   -0.8857 H         1 <0>         0.0000
     34 H11        -5.4099   -6.9525   -0.8706 H         1 <0>         0.0000
     35 H12        -6.5596  -11.0999    0.0652 H         1 <0>         0.0000
     36 H13        -5.5396  -10.6721   -1.3258 H         1 <0>         0.0000
     37 H14        -5.0170  -11.9383   -0.2083 H         1 <0>         0.0000
     38 H15        -2.7962   -6.3818    3.3228 H         1 <0>         0.0000
     39 H16        -2.4875   -5.0852    2.1405 H         1 <0>         0.0000
@<TRIPOS>BOND
     1    1    2 ar
     2    1    3 ar
     3    1   24 1
     4    2    4 ar
     5    2   25 1
     6    3    6 ar
     7    3   26 1
     8    4    8 ar
     9    4   27 1
    10    5    7 1
    11    5    9 2
    12    5   28 1
    13    6    8 ar
    14    6   11 1
    15    7   10 2
    16    7   12 1
    17    8   23 1
    18    9   13 1
    19    9   17 1
    20   10   14 1
    21   10   17 1
    22   11   18 am
    23   11   19 2
    24   12   16 1
    25   12   20 2
    26   13   29 1
    27   13   30 1
    28   13   31 1
    29   14   32 1
    30   14   33 1
    31   14   34 1
    32   15   17 1
    33   15   35 1
    34   15   36 1
    35   15   37 1
    36   16   18 1
    37   16   38 1
    38   16   39 1
    39   18   23 1
    40   21   23 2
    41   22   23 2
