@<TRIPOS>MOLECULE
*****
   59    62     0     0     0
SMALL
NO_CHARGES

@<TRIPOS>ATOM
      1 C1          1.2571    1.9602   -0.0112 C.ar      1 <0>         0.0000
      2 C2          0.2862    3.8817   -1.1116 C.ar      1 <0>         0.0000
      3 C3         -1.3087    0.5312   -0.6982 C.ar      1 <0>         0.0000
      4 C4          2.5004    2.5915   -0.0163 C.ar      1 <0>         0.0000
      5 C5          1.5334    4.5045   -1.1161 C.ar      1 <0>         0.0000
      6 C6         -2.5529   -0.0918   -0.7160 C.ar      1 <0>         0.0000
      7 C7         -8.4185   -1.8088   -5.8202 C.ar      1 <0>         0.0000
      8 C8         -6.3529   -3.0843   -5.9385 C.ar      1 <0>         0.0000
      9 C9         -8.3344   -1.5305   -7.1832 C.ar      1 <0>         0.0000
     10 C10        -6.2686   -2.8096   -7.3093 C.ar      1 <0>         0.0000
     11 C11        -2.3830    2.6663   -0.4295 C.ar      1 <0>         0.0000
     12 C12         0.1251    2.5953   -0.5594 C.ar      1 <0>         0.0000
     13 C13        -1.1914    1.9315   -0.5605 C.ar      1 <0>         0.0000
     14 C14         2.6588    3.8706   -0.5695 C.ar      1 <0>         0.0000
     15 C15        -3.6480    2.0678   -0.4483 C.ar      1 <0>         0.0000
     16 C16        -3.7071    0.6804   -0.5999 C.ar      1 <0>         0.0000
     17 C17        -7.4289   -2.5817   -5.2033 C.ar      1 <0>         0.0000
     18 C18        -7.2569   -2.0387   -7.9076 C.ar      1 <0>         0.0000
     19 C19         4.0450    4.5664   -0.5796 C.2       1 <0>         0.0000
     20 C20        -4.9091    2.8990   -0.3132 C.3       1 <0>         0.0000
     21 C21        -6.1335    2.0238   -0.0134 C.3       1 <0>         0.0000
     22 C22        -6.0802    0.7907   -0.9085 C.3       1 <0>         0.0000
     23 C23        -7.2518   -0.1640   -0.7031 C.3       1 <0>         0.0000
     24 C24        -7.8348   -2.6123   -1.1683 C.3       1 <0>         0.0000
     25 C25        -6.7538   -3.7459   -3.1946 C.3       1 <0>         0.0000
     26 C26        -7.2149   -3.8897   -1.7269 C.3       1 <0>         0.0000
     27 N1         -6.9100   -1.4556   -1.3989 N.4       1 <0>         0.0000
     28 O1          4.0505    5.7244   -1.0759 O.co2     1 <0>         0.0000
     29 O2          4.9826    3.8816   -0.0909 O.co2     1 <0>         0.0000
     30 O3         -4.9367   -0.0103   -0.6169 O.3       1 <0>         0.0000
     31 O4         -6.0967   -4.1614   -0.8828 O.3       1 <0>         0.0000
     32 O5         -7.5892   -2.7797   -3.8320 O.3       1 <0>         0.0000
     33 F1         -7.1759   -1.7742   -9.2309 F         1 <0>         0.0000
     34 H1          1.1520    0.9821    0.4557 H         1 <0>         0.0000
     35 H2         -0.5645    4.3773   -1.5773 H         1 <0>         0.0000
     36 H3         -0.4121   -0.0676   -0.8227 H         1 <0>         0.0000
     37 H4          3.3834    2.1237    0.4103 H         1 <0>         0.0000
     38 H5          1.6817    5.4905   -1.5478 H         1 <0>         0.0000
     39 H6         -2.6379   -1.1700   -0.8298 H         1 <0>         0.0000
     40 H7         -9.2522   -1.4394   -5.2302 H         1 <0>         0.0000
     41 H8         -5.5740   -3.6798   -5.4760 H         1 <0>         0.0000
     42 H9         -9.0901   -0.9355   -7.6860 H         1 <0>         0.0000
     43 H10        -5.4430   -3.1858   -7.9050 H         1 <0>         0.0000
     44 H11        -2.3216    3.7414   -0.2811 H         1 <0>         0.0000
     45 H12        -4.7830    3.6426    0.4792 H         1 <0>         0.0000
     46 H13        -5.0808    3.4610   -1.2397 H         1 <0>         0.0000
     47 H14        -6.1211    1.6908    1.0307 H         1 <0>         0.0000
     48 H15        -7.0633    2.5787   -0.1818 H         1 <0>         0.0000
     49 H16        -6.0379    1.1064   -1.9649 H         1 <0>         0.0000
     50 H17        -8.1863    0.2200   -1.1154 H         1 <0>         0.0000
     51 H18        -7.3800   -0.3993    0.3553 H         1 <0>         0.0000
     52 H19        -8.7842   -2.3820   -1.6493 H         1 <0>         0.0000
     53 H20        -7.9732   -2.7211   -0.0920 H         1 <0>         0.0000
     54 H21        -6.8119   -4.7079   -3.7164 H         1 <0>         0.0000
     55 H22        -5.7068   -3.4148   -3.1989 H         1 <0>         0.0000
     56 H23        -7.9755   -4.6749   -1.6417 H         1 <0>         0.0000
     57 H24        -6.8657   -1.2999   -2.4153 H         1 <0>         0.0000
     58 H25        -5.9497   -1.6880   -1.0911 H         1 <0>         0.0000
     59 H26        -5.7454   -5.0495   -1.0575 H         1 <0>         0.0000
@<TRIPOS>BOND
     1    1    4 ar
     2    1   12 ar
     3    1   34 1
     4    2    5 ar
     5    2   12 ar
     6    2   35 1
     7    3    6 ar
     8    3   13 ar
     9    3   36 1
    10    4   14 ar
    11    4   37 1
    12    5   14 ar
    13    5   38 1
    14    6   16 ar
    15    6   39 1
    16    7    9 ar
    17    7   17 ar
    18    7   40 1
    19    8   10 ar
    20    8   17 ar
    21    8   41 1
    22    9   18 ar
    23    9   42 1
    24   10   18 ar
    25   10   43 1
    26   11   13 ar
    27   11   15 ar
    28   11   44 1
    29   12   13 1
    30   14   19 1
    31   15   16 ar
    32   15   20 1
    33   16   30 1
    34   17   32 1
    35   18   33 1
    36   19   28 1
    37   19   29 2
    38   20   21 1
    39   20   45 1
    40   20   46 1
    41   21   22 1
    42   21   47 1
    43   21   48 1
    44   22   23 1
    45   22   30 1
    46   22   49 1
    47   23   27 1
    48   23   50 1
    49   23   51 1
    50   24   26 1
    51   24   27 1
    52   24   52 1
    53   24   53 1
    54   25   26 1
    55   25   32 1
    56   25   54 1
    57   25   55 1
    58   26   31 1
    59   26   56 1
    60   27   57 1
    61   27   58 1
    62   31   59 1
