@<TRIPOS>MOLECULE
*****
   58    62     0     0     0
SMALL
NO_CHARGES

@<TRIPOS>ATOM
      1 C1          5.5332    0.0031   -2.9616 C.ar      1 <0>         0.0000
      2 C2          4.5217    0.4983   -3.8072 C.ar      1 <0>         0.0000
      3 C3          5.2513   -0.3323   -1.6362 C.ar      1 <0>         0.0000
      4 C4          5.1684   -3.8582   -2.5703 C.ar      1 <0>         0.0000
      5 C5          4.3792   -4.4551   -0.2810 C.ar      1 <0>         0.0000
      6 C6          3.7207   -0.9899    1.3313 C.ar      1 <0>         0.0000
      7 C7          3.2143    0.6724   -3.3509 C.ar      1 <0>         0.0000
      8 C8          4.9120   -3.3306   -3.8135 C.ar      1 <0>         0.0000
      9 C9          3.3700   -4.4987    0.6534 C.ar      1 <0>         0.0000
     10 C10         2.7929   -1.1859    2.3542 C.ar      1 <0>         0.0000
     11 C11         2.5966   -2.8896   -3.1909 C.ar      1 <0>         0.0000
     12 C12         1.8127   -3.4832   -0.9228 C.ar      1 <0>         0.0000
     13 C13         0.9944   -0.2708    0.9694 C.ar      1 <0>         0.0000
     14 C14         4.1519   -3.9251   -1.5793 C.ar      1 <0>         0.0000
     15 C15         3.9501   -0.1616   -1.1509 C.ar      1 <0>         0.0000
     16 C16         3.3025   -0.4357    0.1159 C.ar      1 <0>         0.0000
     17 C17         2.8469   -3.4336   -1.8999 C.ar      1 <0>         0.0000
     18 C18         2.9391    0.3453   -2.0194 C.ar      1 <0>         0.0000
     19 C19         1.9342   -0.0763   -0.0468 C.ar      1 <0>         0.0000
     20 C20         3.6136   -2.8391   -4.1260 C.ar      1 <0>         0.0000
     21 C21         2.0770   -4.0040    0.3287 C.ar      1 <0>         0.0000
     22 C22         1.4390   -0.8416    2.1579 C.ar      1 <0>         0.0000
     23 C23        -0.1815   -0.6653   -2.4675 C.2       1 <0>         0.0000
     24 C24         2.1734   -1.8965   -5.7787 C.3       1 <0>         0.0000
     25 C25         0.4308    0.6702   -1.9302 C.3       1 <0>         0.0000
     26 C26        -0.6707   -3.1897    2.5808 C.3       1 <0>         0.0000
     27 C27        -0.1079   -3.4487    1.1851 C.3       1 <0>         0.0000
     28 C28         0.2690   -2.4326    3.5261 C.3       1 <0>         0.0000
     29 N1          1.7359    0.4176   -1.3260 N.pl3     1 <0>         0.0000
     30 O1         -0.0795   -0.8505   -3.7106 O.co2     1 <0>         0.0000
     31 O2         -0.6534   -1.4289   -1.5793 O.co2     1 <0>         0.0000
     32 O3          3.4824   -2.3316   -5.3918 O.3       1 <0>         0.0000
     33 O4          1.1670   -4.0868    1.3533 O.3       1 <0>         0.0000
     34 O5          0.4940   -1.0628    3.1563 O.3       1 <0>         0.0000
     35 H1          6.5334   -0.1535   -3.3577 H         1 <0>         0.0000
     36 H2          4.7522    0.7122   -4.8477 H         1 <0>         0.0000
     37 H3          6.0257   -0.7508   -0.9974 H         1 <0>         0.0000
     38 H4          6.1657   -4.2233   -2.3299 H         1 <0>         0.0000
     39 H5          5.3716   -4.8245   -0.0269 H         1 <0>         0.0000
     40 H6          4.7550   -1.2939    1.4717 H         1 <0>         0.0000
     41 H7          2.4261    1.0013   -4.0200 H         1 <0>         0.0000
     42 H8          5.6848   -3.2594   -4.5740 H         1 <0>         0.0000
     43 H9          3.5358   -4.8863    1.6550 H         1 <0>         0.0000
     44 H10         3.0984   -1.6313    3.2966 H         1 <0>         0.0000
     45 H11         1.6084   -2.4940   -3.4044 H         1 <0>         0.0000
     46 H12         0.8419   -3.0706   -1.1842 H         1 <0>         0.0000
     47 H13        -0.0620   -0.0866    0.8169 H         1 <0>         0.0000
     48 H14         2.2851   -1.4968   -6.7897 H         1 <0>         0.0000
     49 H15         1.7721   -1.1344   -5.1068 H         1 <0>         0.0000
     50 H16         1.4723   -2.7402   -5.7900 H         1 <0>         0.0000
     51 H17         0.5628    1.3932   -2.7382 H         1 <0>         0.0000
     52 H18        -0.2160    1.1103   -1.1657 H         1 <0>         0.0000
     53 H19        -1.6111   -2.6358    2.4774 H         1 <0>         0.0000
     54 H20        -0.9061   -4.1492    3.0627 H         1 <0>         0.0000
     55 H21        -0.7746   -4.1092    0.6151 H         1 <0>         0.0000
     56 H22        -0.0092   -2.5238    0.6191 H         1 <0>         0.0000
     57 H23         1.2205   -2.9677    3.6054 H         1 <0>         0.0000
     58 H24        -0.1835   -2.3840    4.5223 H         1 <0>         0.0000
@<TRIPOS>BOND
     1    1    2 ar
     2    1    3 ar
     3    1   35 1
     4    2    7 ar
     5    2   36 1
     6    3   15 ar
     7    3   37 1
     8    4    8 ar
     9    4   14 ar
    10    4   38 1
    11    5    9 ar
    12    5   14 ar
    13    5   39 1
    14    6   10 ar
    15    6   16 ar
    16    6   40 1
    17    7   18 ar
    18    7   41 1
    19    8   20 ar
    20    8   42 1
    21    9   21 ar
    22    9   43 1
    23   10   22 ar
    24   10   44 1
    25   11   17 ar
    26   11   20 ar
    27   11   45 1
    28   12   17 ar
    29   12   21 ar
    30   12   46 1
    31   13   19 ar
    32   13   22 ar
    33   13   47 1
    34   14   17 ar
    35   15   16 1
    36   15   18 ar
    37   16   19 ar
    38   18   29 1
    39   19   29 1
    40   20   32 1
    41   21   33 1
    42   22   34 1
    43   23   25 1
    44   23   30 1
    45   23   31 2
    46   24   32 1
    47   24   48 1
    48   24   49 1
    49   24   50 1
    50   25   29 1
    51   25   51 1
    52   25   52 1
    53   26   27 1
    54   26   28 1
    55   26   53 1
    56   26   54 1
    57   27   33 1
    58   27   55 1
    59   27   56 1
    60   28   34 1
    61   28   57 1
    62   28   58 1
