@<TRIPOS>MOLECULE
*****
   43    46     0     0     0
SMALL
NO_CHARGES

@<TRIPOS>ATOM
      1 C1         -1.1016   -4.4694    5.7431 C.ar      1 <0>         0.0000
      2 C2         -1.9850   -4.3874    6.7992 C.ar      1 <0>         0.0000
      3 C3         -3.7416   -3.5617    5.3137 C.ar      1 <0>         0.0000
      4 C4         -2.2618   -3.3943    1.8869 C.ar      1 <0>         0.0000
      5 C5         -2.8364   -3.6462    4.2251 C.ar      1 <0>         0.0000
      6 C6         -1.4975   -4.1037    4.4280 C.ar      1 <0>         0.0000
      7 C7         -3.1960   -3.2855    2.8938 C.ar      1 <0>         0.0000
      8 C8         -3.2979   -3.9309    6.5594 C.ar      1 <0>         0.0000
      9 C9         -0.9588   -3.8639    2.2025 C.ar      1 <0>         0.0000
     10 C10         0.1807    0.6678   -1.6945 C.3       1 <0>         0.0000
     11 C11         0.7495   -0.9437   -3.3604 C.3       1 <0>         0.0000
     12 C12         0.8093   -3.0550   -1.1031 C.3       1 <0>         0.0000
     13 C13         0.2996   -1.6247    0.3714 C.3       1 <0>         0.0000
     14 C14        -0.6565    1.4120   -2.7301 C.3       1 <0>         0.0000
     15 C15        -0.0977   -0.1710   -4.3667 C.3       1 <0>         0.0000
     16 C16         0.9743   -1.5136   -1.0211 C.3       1 <0>         0.0000
     17 C17         0.0628   -4.0153    1.0918 C.3       1 <0>         0.0000
     18 N1         -0.5770   -4.2012    3.4211 N.ar      1 <0>         0.0000
     19 N2          0.2077   -0.7654   -2.0084 N.3       1 <0>         0.0000
     20 N3         -0.1082   -3.0139    0.0564 N.3       1 <0>         0.0000
     21 O1         -0.1508    1.2183   -4.0493 O.3       1 <0>         0.0000
     22 O2         -4.4727   -2.8439    2.6970 O.3       1 <0>         0.0000
     23 F1         -4.1464   -3.8599    7.6189 F         1 <0>         0.0000
     24 H1         -0.0827   -4.8154    5.8867 H         1 <0>         0.0000
     25 H2         -1.6973   -4.6643    7.8090 H         1 <0>         0.0000
     26 H3         -4.7584   -3.2153    5.1664 H         1 <0>         0.0000
     27 H4         -2.4824   -3.1233    0.8573 H         1 <0>         0.0000
     28 H5          1.2017    1.0950   -1.6776 H         1 <0>         0.0000
     29 H6         -0.2600    0.8175   -0.7040 H         1 <0>         0.0000
     30 H7          0.7355   -2.0060   -3.6231 H         1 <0>         0.0000
     31 H8          1.7978   -0.5938   -3.4229 H         1 <0>         0.0000
     32 H9          0.3578   -3.4650   -2.0123 H         1 <0>         0.0000
     33 H10         1.7551   -3.5795   -0.8985 H         1 <0>         0.0000
     34 H11         1.0262   -1.5594    1.1954 H         1 <0>         0.0000
     35 H12        -0.5377   -0.9512    0.5787 H         1 <0>         0.0000
     36 H13        -1.7002    1.0662   -2.6745 H         1 <0>         0.0000
     37 H14        -0.6300    2.4890   -2.5442 H         1 <0>         0.0000
     38 H15         0.3343   -0.2425   -5.3684 H         1 <0>         0.0000
     39 H16        -1.1155   -0.5900   -4.3866 H         1 <0>         0.0000
     40 H17         2.0242   -1.1764   -0.9865 H         1 <0>         0.0000
     41 H18         1.0663   -3.9997    1.5509 H         1 <0>         0.0000
     42 H19        -0.0651   -5.0041    0.6305 H         1 <0>         0.0000
     43 H20        -4.5939   -2.6367    1.7557 H         1 <0>         0.0000
@<TRIPOS>BOND
     1    1    2 ar
     2    1    6 ar
     3    1   24 1
     4    2    8 ar
     5    2   25 1
     6    3    5 ar
     7    3    8 ar
     8    3   26 1
     9    4    7 ar
    10    4    9 ar
    11    4   27 1
    12    5    6 ar
    13    5    7 ar
    14    6   18 ar
    15    7   22 1
    16    8   23 1
    17    9   17 1
    18    9   18 ar
    19   10   14 1
    20   10   19 1
    21   10   28 1
    22   10   29 1
    23   11   15 1
    24   11   19 1
    25   11   30 1
    26   11   31 1
    27   12   16 1
    28   12   20 1
    29   12   32 1
    30   12   33 1
    31   13   16 1
    32   13   20 1
    33   13   34 1
    34   13   35 1
    35   14   21 1
    36   14   36 1
    37   14   37 1
    38   15   21 1
    39   15   38 1
    40   15   39 1
    41   16   19 1
    42   16   40 1
    43   17   20 1
    44   17   41 1
    45   17   42 1
    46   22   43 1
