@<TRIPOS>MOLECULE
*****
   25    25     0     0     0
SMALL
NO_CHARGES

@<TRIPOS>ATOM
      1 C1          1.1762    0.7428    2.8334 C.2       1 <0>         0.0000
      2 C2          0.7615   -0.1488    1.9079 C.2       1 <0>         0.0000
      3 C3          2.9669   -0.8941    2.1734 C.2       1 <0>         0.0000
      4 C4         -1.1784   -1.6619    1.3893 C.2       1 <0>         0.0000
      5 C5         -0.7865   -3.9307    0.7626 C.3       1 <0>         0.0000
      6 C6          5.1177   -4.0271    1.9557 C.3       1 <0>         0.0000
      7 C7         -0.5971   -0.2559    1.2728 C.3       1 <0>         0.0000
      8 N1          4.0606   -1.6034    2.0882 N.2       1 <0>         0.0000
      9 N2          1.7701   -1.0349    1.5294 N.pl3     1 <0>         0.0000
     10 O1         -2.1509   -1.9682    2.0440 O.2       1 <0>         0.0000
     11 O2          2.7787   -3.4729    0.8108 O.2       1 <0>         0.0000
     12 O3          4.8785   -2.4807   -0.1908 O.2       1 <0>         0.0000
     13 O4         -0.4364   -2.5287    0.6630 O.3       1 <0>         0.0000
     14 S1          2.8637    0.4894    3.2693 S.3       1 <0>         0.0000
     15 S2          4.1251   -2.8703    1.0057 S.o2      1 <0>         0.0000
     16 H1          0.6006    1.5413    3.2799 H         1 <0>         0.0000
     17 H2          0.0078   -4.4576    0.2369 H         1 <0>         0.0000
     18 H3         -1.7577   -4.1033    0.2943 H         1 <0>         0.0000
     19 H4         -0.8240   -4.2317    1.8110 H         1 <0>         0.0000
     20 H5          5.2766   -4.8976    1.3172 H         1 <0>         0.0000
     21 H6          6.0639   -3.5418    2.1947 H         1 <0>         0.0000
     22 H7          4.5709   -4.2969    2.8590 H         1 <0>         0.0000
     23 H8         -0.5253   -0.0031    0.2083 H         1 <0>         0.0000
     24 H9         -1.2837    0.4385    1.7551 H         1 <0>         0.0000
     25 H10         1.5929   -1.8777    0.9766 H         1 <0>         0.0000
@<TRIPOS>BOND
     1    1    2 2
     2    1   14 1
     3    1   16 1
     4    2    7 1
     5    2    9 1
     6    3    8 2
     7    3    9 1
     8    3   14 1
     9    4    7 1
    10    4   10 2
    11    4   13 1
    12    5   13 1
    13    5   17 1
    14    5   18 1
    15    5   19 1
    16    6   15 1
    17    6   20 1
    18    6   21 1
    19    6   22 1
    20    7   23 1
    21    7   24 1
    22    8   15 1
    23    9   25 1
    24   11   15 2
    25   12   15 2
