@<TRIPOS>MOLECULE
*****
   60    63     0     0     0
SMALL
NO_CHARGES

@<TRIPOS>ATOM
      1 C1          6.4645    4.5135    0.0504 C.ar      1 <0>         0.0000
      2 C2          5.1675    4.2687   -0.3898 C.ar      1 <0>         0.0000
      3 C3         -2.9627    1.8612   -5.3247 C.ar      1 <0>         0.0000
      4 C4          6.9706    3.8972    1.2030 C.ar      1 <0>         0.0000
      5 C5         -2.0579    1.5299   -4.3127 C.ar      1 <0>         0.0000
      6 C6          4.8417    2.7617    1.4899 C.ar      1 <0>         0.0000
      7 C7         -3.5397    2.4631   -2.6228 C.ar      1 <0>         0.0000
      8 C8          4.3469    3.3837    0.3373 C.ar      1 <0>         0.0000
      9 C9         -4.1627    2.5003   -4.9876 C.ar      1 <0>         0.0000
     10 C10        -4.4343    2.7936   -3.6468 C.ar      1 <0>         0.0000
     11 C11         6.1480    3.0168    1.9216 C.ar      1 <0>         0.0000
     12 C12        -2.3409    1.8272   -2.9717 C.ar      1 <0>         0.0000
     13 C13         0.9585    2.4015   -0.3300 C.2       1 <0>         0.0000
     14 C14         1.2011    3.2713   -1.3623 C.2       1 <0>         0.0000
     15 C15         2.9804    3.1000   -0.0914 C.2       1 <0>         0.0000
     16 C16        -4.3864    2.2752   -8.1548 C.2       1 <0>         0.0000
     17 C17        -5.7822    3.4731   -3.5242 C.3       1 <0>         0.0000
     18 C18        -6.0380    3.9697   -4.9658 C.3       1 <0>         0.0000
     19 C19        -5.3050    2.9555   -5.8858 C.3       1 <0>         0.0000
     20 C20         0.4758    3.7933   -2.5574 C.3       1 <0>         0.0000
     21 C21        -5.6961    4.6819   -9.3801 C.3       1 <0>         0.0000
     22 C22         7.8561    2.5737    3.5374 C.3       1 <0>         0.0000
     23 C23        -0.2450    1.5833    0.0455 C.3       1 <0>         0.0000
     24 C24        -6.0689    4.1677   -7.9838 C.3       1 <0>         0.0000
     25 C25        -1.5275    1.8907   -0.7116 C.3       1 <0>         0.0000
     26 C26        -4.8950    3.4743   -7.2745 C.3       1 <0>         0.0000
     27 N1          2.1025    2.3108    0.4638 N.2       1 <0>         0.0000
     28 O1         -5.2575    1.3959   -8.4048 O.co2     1 <0>         0.0000
     29 O2         -3.1729    2.3118   -8.5077 O.co2     1 <0>         0.0000
     30 O3          2.5043    3.7220   -1.2087 O.3       1 <0>         0.0000
     31 O4          6.5345    2.3567    3.0623 O.3       1 <0>         0.0000
     32 O5         -1.3588    1.4738   -2.0578 O.3       1 <0>         0.0000
     33 H1          7.1022    5.1945   -0.5077 H         1 <0>         0.0000
     34 H2          4.7848    4.7486   -1.2841 H         1 <0>         0.0000
     35 H3         -2.7290    1.6572   -6.3669 H         1 <0>         0.0000
     36 H4          7.9856    4.1078    1.5203 H         1 <0>         0.0000
     37 H5         -1.1137    1.0439   -4.5463 H         1 <0>         0.0000
     38 H6          4.2132    2.0784    2.0515 H         1 <0>         0.0000
     39 H7         -3.7806    2.7007   -1.5910 H         1 <0>         0.0000
     40 H8         -6.5467    2.7404   -3.2260 H         1 <0>         0.0000
     41 H9         -5.7966    4.2761   -2.7769 H         1 <0>         0.0000
     42 H10        -7.1027    4.0637   -5.1996 H         1 <0>         0.0000
     43 H11        -5.5800    4.9598   -5.0908 H         1 <0>         0.0000
     44 H12        -5.9642    2.0938   -6.0677 H         1 <0>         0.0000
     45 H13         0.9349    4.7315   -2.8806 H         1 <0>         0.0000
     46 H14         0.5111    3.0842   -3.3898 H         1 <0>         0.0000
     47 H15        -0.5773    3.9791   -2.3470 H         1 <0>         0.0000
     48 H16        -5.3755    3.8545  -10.0194 H         1 <0>         0.0000
     49 H17        -6.5478    5.1809   -9.8615 H         1 <0>         0.0000
     50 H18        -4.8677    5.3996   -9.3278 H         1 <0>         0.0000
     51 H19         7.9558    1.9612    4.4351 H         1 <0>         0.0000
     52 H20         8.0231    3.6269    3.7978 H         1 <0>         0.0000
     53 H21         8.6060    2.2593    2.8000 H         1 <0>         0.0000
     54 H22        -0.0054    0.5208   -0.0822 H         1 <0>         0.0000
     55 H23        -0.4297    1.7299    1.1164 H         1 <0>         0.0000
     56 H24        -6.4394    5.0087   -7.3799 H         1 <0>         0.0000
     57 H25        -6.8866    3.4424   -8.0730 H         1 <0>         0.0000
     58 H26        -2.3681    1.3529   -0.2502 H         1 <0>         0.0000
     59 H27        -1.7553    2.9649   -0.6631 H         1 <0>         0.0000
     60 H28        -4.0702    4.1907   -7.1570 H         1 <0>         0.0000
@<TRIPOS>BOND
     1    1    2 ar
     2    1    4 ar
     3    1   33 1
     4    2    8 ar
     5    2   34 1
     6    3    5 ar
     7    3    9 ar
     8    3   35 1
     9    4   11 ar
    10    4   36 1
    11    5   12 ar
    12    5   37 1
    13    6    8 ar
    14    6   11 ar
    15    6   38 1
    16    7   10 ar
    17    7   12 ar
    18    7   39 1
    19    8   15 1
    20    9   10 ar
    21    9   19 1
    22   10   17 1
    23   11   31 1
    24   12   32 1
    25   13   14 2
    26   13   23 1
    27   13   27 1
    28   14   20 1
    29   14   30 1
    30   15   27 2
    31   15   30 1
    32   16   26 1
    33   16   28 1
    34   16   29 2
    35   17   18 1
    36   17   40 1
    37   17   41 1
    38   18   19 1
    39   18   42 1
    40   18   43 1
    41   19   26 1
    42   19   44 1
    43   20   45 1
    44   20   46 1
    45   20   47 1
    46   21   24 1
    47   21   48 1
    48   21   49 1
    49   21   50 1
    50   22   31 1
    51   22   51 1
    52   22   52 1
    53   22   53 1
    54   23   25 1
    55   23   54 1
    56   23   55 1
    57   24   26 1
    58   24   56 1
    59   24   57 1
    60   25   32 1
    61   25   58 1
    62   25   59 1
    63   26   60 1
