@<TRIPOS>MOLECULE
*****
   59    62     0     0     0
SMALL
NO_CHARGES

@<TRIPOS>ATOM
      1 C1          1.1027    2.1711   -0.1251 C.ar      1 <0>         0.0000
      2 C2          0.1690    3.9974   -1.4007 C.ar      1 <0>         0.0000
      3 C3         -1.3499    0.6213   -0.9718 C.ar      1 <0>         0.0000
      4 C4          2.3218    2.8373   -0.0587 C.ar      1 <0>         0.0000
      5 C5          1.3853    4.6717   -1.3341 C.ar      1 <0>         0.0000
      6 C6         -2.5701   -0.0410   -1.0391 C.ar      1 <0>         0.0000
      7 C7         -9.8530    2.4089    0.7390 C.ar      1 <0>         0.0000
      8 C8         -8.2590    2.7626    2.5314 C.ar      1 <0>         0.0000
      9 C9         -9.6203    3.6998    0.2652 C.ar      1 <0>         0.0000
     10 C10        -8.0141    4.0551    2.0530 C.ar      1 <0>         0.0000
     11 C11        -2.5099    2.7241   -0.8245 C.ar      1 <0>         0.0000
     12 C12         0.0008    2.7358   -0.7980 C.ar      1 <0>         0.0000
     13 C13        -1.2945    2.0244   -0.8669 C.ar      1 <0>         0.0000
     14 C14         2.4745    4.0953   -0.6620 C.ar      1 <0>         0.0000
     15 C15        -3.7511    2.0839   -0.8854 C.ar      1 <0>         0.0000
     16 C16        -3.7696    0.6828   -0.9992 C.ar      1 <0>         0.0000
     17 C17        -9.1680    1.9276    1.8661 C.ar      1 <0>         0.0000
     18 C18        -8.6925    4.5009    0.9266 C.ar      1 <0>         0.0000
     19 C19         3.7909    4.7690   -0.5649 C.2       1 <0>         0.0000
     20 C20        -5.0492    2.8574   -0.8050 C.3       1 <0>         0.0000
     21 C21        -6.1973    1.9356   -0.3929 C.3       1 <0>         0.0000
     22 C22        -6.1698    0.6670   -1.2364 C.3       1 <0>         0.0000
     23 C23        -7.2756   -0.3268   -0.9011 C.3       1 <0>         0.0000
     24 C24        -8.3222   -1.5555    0.9504 C.3       1 <0>         0.0000
     25 C25        -8.4943   -0.0894    2.9977 C.3       1 <0>         0.0000
     26 C26        -8.4353   -1.5213    2.4808 C.3       1 <0>         0.0000
     27 N1         -7.1967   -0.7446    0.4957 N.3       1 <0>         0.0000
     28 O1          4.7739    4.3147   -0.0033 O.2       1 <0>         0.0000
     29 O2         -4.9254   -0.0527   -1.0563 O.3       1 <0>         0.0000
     30 O3          3.8191    5.9877   -1.1787 O.3       1 <0>         0.0000
     31 O4         -9.6019   -2.2134    2.9316 O.3       1 <0>         0.0000
     32 O5         -9.4672    0.6514    2.2512 O.3       1 <0>         0.0000
     33 F1         -8.4465    5.7555    0.4553 F         1 <0>         0.0000
     34 H1          0.9913    1.2130    0.3742 H         1 <0>         0.0000
     35 H2         -0.6550    4.4403   -1.9526 H         1 <0>         0.0000
     36 H3         -0.4307    0.0460   -1.0348 H         1 <0>         0.0000
     37 H4          3.1668    2.4035    0.4670 H         1 <0>         0.0000
     38 H5          1.5002    5.6393   -1.8111 H         1 <0>         0.0000
     39 H6         -2.6169   -1.1219   -1.1374 H         1 <0>         0.0000
     40 H7        -10.5631    1.7537    0.2433 H         1 <0>         0.0000
     41 H8         -7.7429    2.4242    3.4229 H         1 <0>         0.0000
     42 H9        -10.1399    4.0826   -0.6080 H         1 <0>         0.0000
     43 H10        -7.3091    4.7122    2.5530 H         1 <0>         0.0000
     44 H11        -2.4977    3.8049   -0.7010 H         1 <0>         0.0000
     45 H12        -4.9496    3.6840   -0.0940 H         1 <0>         0.0000
     46 H13        -5.2696    3.3123   -1.7799 H         1 <0>         0.0000
     47 H14        -6.1164    1.6601    0.6609 H         1 <0>         0.0000
     48 H15        -7.1620    2.4325   -0.5229 H         1 <0>         0.0000
     49 H16        -6.2467    0.9298   -2.3018 H         1 <0>         0.0000
     50 H17        -7.2241   -1.1705   -1.6109 H         1 <0>         0.0000
     51 H18        -8.2365    0.1754   -1.0575 H         1 <0>         0.0000
     52 H19        -8.2722   -2.6069    0.6102 H         1 <0>         0.0000
     53 H20        -9.2448   -1.1305    0.5482 H         1 <0>         0.0000
     54 H21        -7.5047    0.3512    2.8679 H         1 <0>         0.0000
     55 H22        -8.7685   -0.0870    4.0586 H         1 <0>         0.0000
     56 H23        -7.5350   -1.9752    2.9290 H         1 <0>         0.0000
     57 H24        -6.3168   -1.2352    0.6385 H         1 <0>         0.0000
     58 H25         4.7256    6.3252   -1.0492 H         1 <0>         0.0000
     59 H26        -9.5936   -3.1051    2.5489 H         1 <0>         0.0000
@<TRIPOS>BOND
     1    1    4 ar
     2    1   12 ar
     3    1   34 1
     4    2    5 ar
     5    2   12 ar
     6    2   35 1
     7    3    6 ar
     8    3   13 ar
     9    3   36 1
    10    4   14 ar
    11    4   37 1
    12    5   14 ar
    13    5   38 1
    14    6   16 ar
    15    6   39 1
    16    7    9 ar
    17    7   17 ar
    18    7   40 1
    19    8   10 ar
    20    8   17 ar
    21    8   41 1
    22    9   18 ar
    23    9   42 1
    24   10   18 ar
    25   10   43 1
    26   11   13 ar
    27   11   15 ar
    28   11   44 1
    29   12   13 1
    30   14   19 1
    31   15   16 ar
    32   15   20 1
    33   16   29 1
    34   17   32 1
    35   18   33 1
    36   19   28 2
    37   19   30 1
    38   20   21 1
    39   20   45 1
    40   20   46 1
    41   21   22 1
    42   21   47 1
    43   21   48 1
    44   22   23 1
    45   22   29 1
    46   22   49 1
    47   23   27 1
    48   23   50 1
    49   23   51 1
    50   24   26 1
    51   24   27 1
    52   24   52 1
    53   24   53 1
    54   25   26 1
    55   25   32 1
    56   25   54 1
    57   25   55 1
    58   26   31 1
    59   26   56 1
    60   27   57 1
    61   30   58 1
    62   31   59 1
