@<TRIPOS>MOLECULE
*****
   64    65     0     0     0
SMALL
NO_CHARGES

@<TRIPOS>ATOM
      1 C1          3.9671   -0.7185   -6.5955 C.ar      1 <0>         0.0000
      2 C2          5.1245   -0.0956   -6.1211 C.ar      1 <0>         0.0000
      3 C3          3.2090   -1.0349   -4.3290 C.ar      1 <0>         0.0000
      4 C4          2.9957   -1.1951   -5.7047 C.ar      1 <0>         0.0000
      5 C5          1.7474   -1.8205   -6.2424 C.ar      1 <0>         0.0000
      6 C6          4.3493   -0.4030   -3.8176 C.ar      1 <0>         0.0000
      7 C7          0.5697   -1.0501   -6.3415 C.ar      1 <0>         0.0000
      8 C8          1.7678   -3.1482   -6.7048 C.ar      1 <0>         0.0000
      9 C9          5.2847    0.0530   -4.7505 C.ar      1 <0>         0.0000
     10 C10        -0.5375   -1.6473   -6.9735 C.ar      1 <0>         0.0000
     11 C11         0.6004   -3.6497   -7.3159 C.ar      1 <0>         0.0000
     12 C12         4.1174    1.2697   -1.9371 C.3       1 <0>         0.0000
     13 C13         2.9120    4.1621   -4.8296 C.3       1 <0>         0.0000
     14 C14        -2.9719   -1.5913   -6.3633 C.3       1 <0>         0.0000
     15 C15        -2.2226   -0.9166   -8.6931 C.3       1 <0>         0.0000
     16 C16         0.2742   -4.9566   -9.4286 C.3       1 <0>         0.0000
     17 C17        -0.6084   -5.8532   -7.2218 C.3       1 <0>         0.0000
     18 C18         4.5360   -0.1568   -2.3395 C.3       1 <0>         0.0000
     19 C19         0.5464    0.3726   -5.8235 C.3       1 <0>         0.0000
     20 C20         3.0080   -4.0035   -6.5511 C.3       1 <0>         0.0000
     21 C21         2.6252    2.8099   -5.4896 C.3       1 <0>         0.0000
     22 C22         0.9743    1.4146   -6.8765 C.3       1 <0>         0.0000
     23 C23         1.2989    2.7854   -6.2638 C.3       1 <0>         0.0000
     24 C24        -1.8613   -0.9293   -7.1980 C.3       1 <0>         0.0000
     25 C25         0.5060   -5.0469   -7.9099 C.3       1 <0>         0.0000
     26 N1         -0.5021   -2.9042   -7.4384 N.ar      1 <0>         0.0000
     27 O1          3.7266   -4.1875   -7.7827 O.3       1 <0>         0.0000
     28 F1          6.4035    0.6828   -4.2944 F         1 <0>         0.0000
     29 H1          3.8055   -0.8069   -7.6670 H         1 <0>         0.0000
     30 H2          5.8859    0.2842   -6.7955 H         1 <0>         0.0000
     31 H3          2.4587   -1.4035   -3.6326 H         1 <0>         0.0000
     32 H4          4.7093    2.0164   -2.4747 H         1 <0>         0.0000
     33 H5          4.2629    1.4278   -0.8635 H         1 <0>         0.0000
     34 H6          3.0621    1.4473   -2.1687 H         1 <0>         0.0000
     35 H7          2.1325    4.4205   -4.1032 H         1 <0>         0.0000
     36 H8          3.8705    4.1503   -4.2994 H         1 <0>         0.0000
     37 H9          2.9510    4.9675   -5.5725 H         1 <0>         0.0000
     38 H10        -3.0896   -2.6386   -6.6566 H         1 <0>         0.0000
     39 H11        -3.9278   -1.0776   -6.5150 H         1 <0>         0.0000
     40 H12        -2.7351   -1.5630   -5.2939 H         1 <0>         0.0000
     41 H13        -2.3316   -1.9379   -9.0674 H         1 <0>         0.0000
     42 H14        -1.4438   -0.4209   -9.2831 H         1 <0>         0.0000
     43 H15        -3.1650   -0.3815   -8.8539 H         1 <0>         0.0000
     44 H16        -0.6587   -4.4265   -9.6419 H         1 <0>         0.0000
     45 H17         0.2139   -5.9596   -9.8652 H         1 <0>         0.0000
     46 H18         1.0961   -4.4223   -9.9160 H         1 <0>         0.0000
     47 H19        -1.5750   -5.3600   -7.3584 H         1 <0>         0.0000
     48 H20        -0.4252   -5.9470   -6.1453 H         1 <0>         0.0000
     49 H21        -0.6690   -6.8620   -7.6451 H         1 <0>         0.0000
     50 H22         3.9433   -0.8867   -1.7786 H         1 <0>         0.0000
     51 H23         5.5839   -0.3162   -2.0671 H         1 <0>         0.0000
     52 H24        -0.4482    0.6291   -5.4476 H         1 <0>         0.0000
     53 H25         1.2142    0.4460   -4.9644 H         1 <0>         0.0000
     54 H26         3.6677   -3.5782   -5.7882 H         1 <0>         0.0000
     55 H27         2.7435   -5.0110   -6.2246 H         1 <0>         0.0000
     56 H28         3.4421    2.5529   -6.1756 H         1 <0>         0.0000
     57 H29         2.6283    2.0291   -4.7213 H         1 <0>         0.0000
     58 H30         0.1786    1.5113   -7.6254 H         1 <0>         0.0000
     59 H31         1.8554    1.0440   -7.4129 H         1 <0>         0.0000
     60 H32         1.3426    3.5379   -7.0619 H         1 <0>         0.0000
     61 H33         0.4791    3.0937   -5.5995 H         1 <0>         0.0000
     62 H34        -1.7651    0.1091   -6.8725 H         1 <0>         0.0000
     63 H35         1.4552   -5.5640   -7.7585 H         1 <0>         0.0000
     64 H36         4.0307   -3.3121   -8.0706 H         1 <0>         0.0000
@<TRIPOS>BOND
     1    1    2 ar
     2    1    4 ar
     3    1   29 1
     4    2    9 ar
     5    2   30 1
     6    3    4 ar
     7    3    6 ar
     8    3   31 1
     9    4    5 1
    10    5    7 ar
    11    5    8 ar
    12    6    9 ar
    13    6   18 1
    14    7   10 ar
    15    7   19 1
    16    8   11 ar
    17    8   20 1
    18    9   28 1
    19   10   24 1
    20   10   26 ar
    21   11   25 1
    22   11   26 ar
    23   12   18 1
    24   12   32 1
    25   12   33 1
    26   12   34 1
    27   13   21 1
    28   13   35 1
    29   13   36 1
    30   13   37 1
    31   14   24 1
    32   14   38 1
    33   14   39 1
    34   14   40 1
    35   15   24 1
    36   15   41 1
    37   15   42 1
    38   15   43 1
    39   16   25 1
    40   16   44 1
    41   16   45 1
    42   16   46 1
    43   17   25 1
    44   17   47 1
    45   17   48 1
    46   17   49 1
    47   18   50 1
    48   18   51 1
    49   19   22 1
    50   19   52 1
    51   19   53 1
    52   20   27 1
    53   20   54 1
    54   20   55 1
    55   21   23 1
    56   21   56 1
    57   21   57 1
    58   22   23 1
    59   22   58 1
    60   22   59 1
    61   23   60 1
    62   23   61 1
    63   24   62 1
    64   25   63 1
    65   27   64 1
