@<TRIPOS>MOLECULE
*****
   62    66     0     0     0
SMALL
NO_CHARGES

@<TRIPOS>ATOM
      1 C1          0.2372   -2.3703   -9.8078 C.ar      1 <0>         0.0000
      2 C2          0.0439   -2.6956   -8.4729 C.ar      1 <0>         0.0000
      3 C3          1.2179   -3.0151  -10.6053 C.ar      1 <0>         0.0000
      4 C4         -0.9074   -0.5061   -2.5099 C.ar      1 <0>         0.0000
      5 C5         -3.1356   -1.3331   -1.0619 C.ar      1 <0>         0.0000
      6 C6          1.9827   -5.1991   -6.6362 C.2       1 <0>         0.0000
      7 C7          0.8595   -3.6955   -7.9025 C.ar      1 <0>         0.0000
      8 C8         -1.4707   -1.7637   -2.7824 C.ar      1 <0>         0.0000
      9 C9          0.9758   -4.2578   -6.5751 C.2       1 <0>         0.0000
     10 C10         0.1842   -3.8906   -5.3957 C.2       1 <0>         0.0000
     11 C11        -0.0210   -2.5698   -4.8510 C.2       1 <0>         0.0000
     12 C12        -2.6018   -2.1738   -2.0390 C.ar      1 <0>         0.0000
     13 C13         1.8297   -4.3386   -8.7077 C.ar      1 <0>         0.0000
     14 C14         2.0225   -4.0123  -10.0598 C.ar      1 <0>         0.0000
     15 C15        -1.4522    0.3315   -1.5418 C.ar      1 <0>         0.0000
     16 C16        -2.5767   -0.0804   -0.8017 C.ar      1 <0>         0.0000
     17 C17        -0.9258   -2.6842   -3.7848 C.2       1 <0>         0.0000
     18 C18        -0.6050   -4.7628   -4.6598 C.2       1 <0>         0.0000
     19 C19         0.5600   -1.3285   -5.3882 C.2       1 <0>         0.0000
     20 C20        -3.2126   -3.5242   -2.3317 C.3       1 <0>         0.0000
     21 C21        -2.1174   -4.5436   -2.6343 C.3       1 <0>         0.0000
     22 C22        -0.8380   -6.2282   -4.8410 C.3       1 <0>         0.0000
     23 C23         3.4648   -1.0289   -7.5605 C.3       1 <0>         0.0000
     24 C24         3.2362   -4.4010  -12.0809 C.3       1 <0>         0.0000
     25 C25        -1.5694    2.6543   -1.9115 C.3       1 <0>         0.0000
     26 C26        -2.3673    1.0062    1.2983 C.3       1 <0>         0.0000
     27 C27         2.3039   -0.4679   -6.7583 C.3       1 <0>         0.0000
     28 N1          2.4997   -5.2546   -7.9215 N.pl3     1 <0>         0.0000
     29 N2         -1.2667   -4.0212   -3.6980 N.pl3     1 <0>         0.0000
     30 O1          0.0492   -0.2161   -5.3424 O.2       1 <0>         0.0000
     31 O2          3.0098   -4.7148  -10.7101 O.3       1 <0>         0.0000
     32 O3         -0.8636    1.5601   -1.3035 O.3       1 <0>         0.0000
     33 O4         -3.1715    0.7345    0.1380 O.3       1 <0>         0.0000
     34 O5          1.7516   -1.5588   -5.9866 O.3       1 <0>         0.0000
     35 H1         -0.3742   -1.5981  -10.2674 H         1 <0>         0.0000
     36 H2         -0.7092   -2.1862   -7.8788 H         1 <0>         0.0000
     37 H3          1.3301   -2.7197  -11.6426 H         1 <0>         0.0000
     38 H4         -0.0508   -0.1462   -3.0633 H         1 <0>         0.0000
     39 H5         -4.0029   -1.6381   -0.4815 H         1 <0>         0.0000
     40 H6          2.3943   -5.8131   -5.8463 H         1 <0>         0.0000
     41 H7         -3.8153   -3.8701   -1.4869 H         1 <0>         0.0000
     42 H8         -3.8770   -3.4539   -3.2035 H         1 <0>         0.0000
     43 H9         -1.5112   -4.7320   -1.7379 H         1 <0>         0.0000
     44 H10        -2.5449   -5.4934   -2.9601 H         1 <0>         0.0000
     45 H11        -0.4716   -6.8216   -3.9940 H         1 <0>         0.0000
     46 H12        -1.9028   -6.4592   -4.9700 H         1 <0>         0.0000
     47 H13        -0.3139   -6.5643   -5.7376 H         1 <0>         0.0000
     48 H14         4.2215   -1.4636   -6.9001 H         1 <0>         0.0000
     49 H15         3.1172   -1.8023   -8.2498 H         1 <0>         0.0000
     50 H16         3.9323   -0.2271   -8.1421 H         1 <0>         0.0000
     51 H17         4.0441   -5.0557  -12.4110 H         1 <0>         0.0000
     52 H18         3.5411   -3.3545  -12.2034 H         1 <0>         0.0000
     53 H19         2.3408   -4.5928  -12.6848 H         1 <0>         0.0000
     54 H20        -1.0119    3.5584   -1.6571 H         1 <0>         0.0000
     55 H21        -2.5906    2.7260   -1.5211 H         1 <0>         0.0000
     56 H22        -1.5957    2.5319   -3.0007 H         1 <0>         0.0000
     57 H23        -2.9737    1.6458    1.9430 H         1 <0>         0.0000
     58 H24        -1.4404    1.5186    1.0264 H         1 <0>         0.0000
     59 H25        -2.1339    0.0724    1.8250 H         1 <0>         0.0000
     60 H26         1.5213   -0.0655   -7.4067 H         1 <0>         0.0000
     61 H27         2.6191    0.3258   -6.0732 H         1 <0>         0.0000
     62 H28         3.2546   -5.8435   -8.2402 H         1 <0>         0.0000
@<TRIPOS>BOND
     1    1    2 ar
     2    1    3 ar
     3    1   35 1
     4    2    7 ar
     5    2   36 1
     6    3   14 ar
     7    3   37 1
     8    4    8 ar
     9    4   15 ar
    10    4   38 1
    11    5   12 ar
    12    5   16 ar
    13    5   39 1
    14    6    9 2
    15    6   28 1
    16    6   40 1
    17    7    9 1
    18    7   13 ar
    19    8   12 ar
    20    8   17 1
    21    9   10 1
    22   10   11 1
    23   10   18 2
    24   11   17 2
    25   11   19 1
    26   12   20 1
    27   13   14 ar
    28   13   28 1
    29   14   31 1
    30   15   16 ar
    31   15   32 1
    32   16   33 1
    33   17   29 1
    34   18   22 1
    35   18   29 1
    36   19   30 2
    37   19   34 1
    38   20   21 1
    39   20   41 1
    40   20   42 1
    41   21   29 1
    42   21   43 1
    43   21   44 1
    44   22   45 1
    45   22   46 1
    46   22   47 1
    47   23   27 1
    48   23   48 1
    49   23   49 1
    50   23   50 1
    51   24   31 1
    52   24   51 1
    53   24   52 1
    54   24   53 1
    55   25   32 1
    56   25   54 1
    57   25   55 1
    58   25   56 1
    59   26   33 1
    60   26   57 1
    61   26   58 1
    62   26   59 1
    63   27   34 1
    64   27   60 1
    65   27   61 1
    66   28   62 1
