@<TRIPOS>MOLECULE
*****
   43    46     0     0     0
SMALL
NO_CHARGES

@<TRIPOS>ATOM
      1 C1          1.0096   -8.7908    1.3074 C.ar      1 <0>         0.0000
      2 C2          0.8460  -10.1327    1.0363 C.ar      1 <0>         0.0000
      3 C3         -1.0996   -9.6520   -0.3638 C.ar      1 <0>         0.0000
      4 C4         -1.5748   -5.9480   -0.2963 C.ar      1 <0>         0.0000
      5 C5         -0.9334   -8.2704   -0.0882 C.ar      1 <0>         0.0000
      6 C6          0.1295   -7.8200    0.7551 C.ar      1 <0>         0.0000
      7 C7         -1.7998   -7.2708   -0.6154 C.ar      1 <0>         0.0000
      8 C8         -0.2150  -10.5380    0.1988 C.ar      1 <0>         0.0000
      9 C9         -0.4784   -5.6083    0.5429 C.ar      1 <0>         0.0000
     10 C10         0.8813    0.5048   -1.6648 C.3       1 <0>         0.0000
     11 C11        -0.3012   -0.7290   -3.3480 C.3       1 <0>         0.0000
     12 C12        -0.0660   -3.2013   -1.4878 C.3       1 <0>         0.0000
     13 C13         0.9845   -2.1167   -0.0162 C.3       1 <0>         0.0000
     14 C14         0.1080    1.7543   -2.0744 C.3       1 <0>         0.0000
     15 C15        -1.0486    0.5474   -3.7216 C.3       1 <0>         0.0000
     16 C16         0.7686   -1.8990   -1.5333 C.3       1 <0>         0.0000
     17 C17        -0.1992   -4.1521    0.8522 C.3       1 <0>         0.0000
     18 N1          0.3432   -6.5052    1.0579 N.ar      1 <0>         0.0000
     19 N2          0.0741   -0.6899   -1.9314 N.3       1 <0>         0.0000
     20 N3          0.5911   -3.5318   -0.2027 N.3       1 <0>         0.0000
     21 O1         -0.2658    1.7084   -3.4506 O.3       1 <0>         0.0000
     22 O2         -2.8219   -7.6965   -1.4140 O.3       1 <0>         0.0000
     23 F1         -0.3515  -11.8667   -0.0502 F         1 <0>         0.0000
     24 H1          1.8137   -8.4381    1.9455 H         1 <0>         0.0000
     25 H2          1.5110  -10.8854    1.4491 H         1 <0>         0.0000
     26 H3         -1.9041  -10.0002   -1.0019 H         1 <0>         0.0000
     27 H4         -2.2268   -5.1635   -0.6749 H         1 <0>         0.0000
     28 H5          1.8421    0.4745   -2.2127 H         1 <0>         0.0000
     29 H6          1.1076    0.5525   -0.5938 H         1 <0>         0.0000
     30 H7         -0.9504   -1.5945   -3.5230 H         1 <0>         0.0000
     31 H8          0.5869   -0.8358   -3.9994 H         1 <0>         0.0000
     32 H9         -1.1375   -2.9611   -1.3791 H         1 <0>         0.0000
     33 H10         0.0696   -3.9450   -2.2794 H         1 <0>         0.0000
     34 H11         1.9872   -1.9737    0.4000 H         1 <0>         0.0000
     35 H12         0.2505   -1.5343    0.5643 H         1 <0>         0.0000
     36 H13        -0.7907    1.8527   -1.4461 H         1 <0>         0.0000
     37 H14         0.7252    2.6481   -1.9519 H         1 <0>         0.0000
     38 H15        -1.2690    0.5666   -4.7922 H         1 <0>         0.0000
     39 H16        -1.9954    0.5959   -3.1617 H         1 <0>         0.0000
     40 H17         1.7073   -2.0468   -2.0942 H         1 <0>         0.0000
     41 H18        -1.1527   -3.6117    1.0130 H         1 <0>         0.0000
     42 H19         0.3792   -4.1082    1.7786 H         1 <0>         0.0000
     43 H20        -3.3407   -6.9292   -1.7058 H         1 <0>         0.0000
@<TRIPOS>BOND
     1    1    2 ar
     2    1    6 ar
     3    1   24 1
     4    2    8 ar
     5    2   25 1
     6    3    5 ar
     7    3    8 ar
     8    3   26 1
     9    4    7 ar
    10    4    9 ar
    11    4   27 1
    12    5    6 ar
    13    5    7 ar
    14    6   18 ar
    15    7   22 1
    16    8   23 1
    17    9   17 1
    18    9   18 ar
    19   10   14 1
    20   10   19 1
    21   10   28 1
    22   10   29 1
    23   11   15 1
    24   11   19 1
    25   11   30 1
    26   11   31 1
    27   12   16 1
    28   12   20 1
    29   12   32 1
    30   12   33 1
    31   13   16 1
    32   13   20 1
    33   13   34 1
    34   13   35 1
    35   14   21 1
    36   14   36 1
    37   14   37 1
    38   15   21 1
    39   15   38 1
    40   15   39 1
    41   16   19 1
    42   16   40 1
    43   17   20 1
    44   17   41 1
    45   17   42 1
    46   22   43 1
