@<TRIPOS>MOLECULE
*****
   66    69     0     0     0
SMALL
NO_CHARGES

@<TRIPOS>ATOM
      1 C1         -1.1595    8.0775    1.5057 C.ar      1 <0>         0.0000
      2 C2         -4.9382    0.9797   -3.0376 C.ar      1 <0>         0.0000
      3 C3         -1.7149    6.8488    1.8278 C.ar      1 <0>         0.0000
      4 C4         -4.4331    1.1776   -1.7432 C.ar      1 <0>         0.0000
      5 C5         -2.2207    1.5857   -2.6688 C.ar      1 <0>         0.0000
      6 C6         -1.0235    8.3769    0.1378 C.ar      1 <0>         0.0000
      7 C7         -4.0991    1.1019   -4.1415 C.ar      1 <0>         0.0000
      8 C8         -2.7392    1.3983   -3.9426 C.ar      1 <0>         0.0000
      9 C9         -2.0045    6.2004   -0.5435 C.ar      1 <0>         0.0000
     10 C10        -1.4453    7.4531   -0.8248 C.ar      1 <0>         0.0000
     11 C11        -3.0790    1.4876   -1.5612 C.ar      1 <0>         0.0000
     12 C12        -2.1279    5.9345    0.8259 C.ar      1 <0>         0.0000
     13 C13        -0.5311    9.4613   -0.6616 C.2       1 <0>         0.0000
     14 C14        -6.9473    0.8512   -5.4798 C.2       1 <0>         0.0000
     15 C15        -2.0217    1.4876   -5.2707 C.3       1 <0>         0.0000
     16 C16        -3.1816    1.6906   -6.2705 C.3       1 <0>         0.0000
     17 C17        -4.4034    0.9805   -5.6287 C.3       1 <0>         0.0000
     18 C18        -4.3321    4.7716   -3.3151 C.3       1 <0>         0.0000
     19 C19        -5.9061    1.5598   -7.6159 C.3       1 <0>         0.0000
     20 C20        -7.9614   -1.2536   -5.1014 C.3       1 <0>         0.0000
     21 C21        -2.4783    5.2723   -1.6312 C.3       1 <0>         0.0000
     22 C22        -3.8771    5.6595   -2.1534 C.3       1 <0>         0.0000
     23 C23        -2.5099    2.4568    1.9334 C.3       1 <0>         0.0000
     24 C24        -3.3674    1.9542    0.7795 C.3       1 <0>         0.0000
     25 C25        -1.7472    3.7298    1.5989 C.3       1 <0>         0.0000
     26 C26        -5.7528    1.5714   -6.0815 C.3       1 <0>         0.0000
     27 C27         0.0600   10.7514   -0.1673 C.3       1 <0>         0.0000
     28 N1         -0.6385    9.2293   -1.9456 N.2       1 <0>         0.0000
     29 O1         -7.9038    1.3954   -4.9597 O.2       1 <0>         0.0000
     30 O2         -1.2184    7.9598   -2.0740 O.3       1 <0>         0.0000
     31 O3         -2.5033    1.7318   -0.3390 O.3       1 <0>         0.0000
     32 O4         -2.7025    4.7451    1.2244 O.3       1 <0>         0.0000
     33 O5         -6.8508   -0.4945   -5.6191 O.3       1 <0>         0.0000
     34 F1          1.1481   10.5078    0.6084 F         1 <0>         0.0000
     35 F2          0.4332   11.5696   -1.1604 F         1 <0>         0.0000
     36 F3         -0.8326   11.4148    0.6119 F         1 <0>         0.0000
     37 H1         -0.8518    8.7786    2.2746 H         1 <0>         0.0000
     38 H2         -5.9960    0.7650   -3.1490 H         1 <0>         0.0000
     39 H3         -1.8632    6.5641    2.8654 H         1 <0>         0.0000
     40 H4         -5.1051    1.1030   -0.8960 H         1 <0>         0.0000
     41 H5         -1.1769    1.8401   -2.5040 H         1 <0>         0.0000
     42 H6         -1.2808    2.2923   -5.3067 H         1 <0>         0.0000
     43 H7         -1.4907    0.5483   -5.4757 H         1 <0>         0.0000
     44 H8         -3.3971    2.7628   -6.3551 H         1 <0>         0.0000
     45 H9         -2.9506    1.3162   -7.2711 H         1 <0>         0.0000
     46 H10        -4.3896   -0.0804   -5.9120 H         1 <0>         0.0000
     47 H11        -3.6291    4.8320   -4.1544 H         1 <0>         0.0000
     48 H12        -4.3993    3.7239   -3.0137 H         1 <0>         0.0000
     49 H13        -5.3177    5.0794   -3.6806 H         1 <0>         0.0000
     50 H14        -5.7982    0.5447   -8.0102 H         1 <0>         0.0000
     51 H15        -5.1467    2.1932   -8.0814 H         1 <0>         0.0000
     52 H16        -6.8879    1.9423   -7.9116 H         1 <0>         0.0000
     53 H17        -7.7200   -2.2974   -5.3021 H         1 <0>         0.0000
     54 H18        -8.8878   -0.9667   -5.6043 H         1 <0>         0.0000
     55 H19        -8.0702   -1.0845   -4.0273 H         1 <0>         0.0000
     56 H20        -1.7671    5.3020   -2.4645 H         1 <0>         0.0000
     57 H21        -2.4985    4.2471   -1.2583 H         1 <0>         0.0000
     58 H22        -4.5931    5.5905   -1.3259 H         1 <0>         0.0000
     59 H23        -3.8626    6.7090   -2.4695 H         1 <0>         0.0000
     60 H24        -3.1617    2.6319    2.7966 H         1 <0>         0.0000
     61 H25        -1.7833    1.6873    2.2171 H         1 <0>         0.0000
     62 H26        -3.8717    1.0205    1.0603 H         1 <0>         0.0000
     63 H27        -4.1264    2.6994    0.5173 H         1 <0>         0.0000
     64 H28        -1.0580    3.5596    0.7646 H         1 <0>         0.0000
     65 H29        -1.1672    4.0711    2.4660 H         1 <0>         0.0000
     66 H30        -5.8268    2.6026   -5.7227 H         1 <0>         0.0000
@<TRIPOS>BOND
     1    1    3 ar
     2    1    6 ar
     3    1   37 1
     4    2    4 ar
     5    2    7 ar
     6    2   38 1
     7    3   12 ar
     8    3   39 1
     9    4   11 ar
    10    4   40 1
    11    5    8 ar
    12    5   11 ar
    13    5   41 1
    14    6   10 ar
    15    6   13 1
    16    7    8 ar
    17    7   17 1
    18    8   15 1
    19    9   10 ar
    20    9   12 ar
    21    9   21 1
    22   10   30 1
    23   11   31 1
    24   12   32 1
    25   13   27 1
    26   13   28 2
    27   14   26 1
    28   14   29 2
    29   14   33 1
    30   15   16 1
    31   15   42 1
    32   15   43 1
    33   16   17 1
    34   16   44 1
    35   16   45 1
    36   17   26 1
    37   17   46 1
    38   18   22 1
    39   18   47 1
    40   18   48 1
    41   18   49 1
    42   19   26 1
    43   19   50 1
    44   19   51 1
    45   19   52 1
    46   20   33 1
    47   20   53 1
    48   20   54 1
    49   20   55 1
    50   21   22 1
    51   21   56 1
    52   21   57 1
    53   22   58 1
    54   22   59 1
    55   23   24 1
    56   23   25 1
    57   23   60 1
    58   23   61 1
    59   24   31 1
    60   24   62 1
    61   24   63 1
    62   25   32 1
    63   25   64 1
    64   25   65 1
    65   26   66 1
    66   27   34 1
    67   27   35 1
    68   27   36 1
    69   28   30 1
