@<TRIPOS>MOLECULE
*****
   33    35     0     0     0
SMALL
NO_CHARGES

@<TRIPOS>ATOM
      1 C1          1.6654   -0.4542   -0.1075 C.ar      1 <0>         0.0000
      2 C2          0.5934    0.0928    0.5782 C.ar      1 <0>         0.0000
      3 C3          2.5552   -1.3259    0.5450 C.ar      1 <0>         0.0000
      4 C4         -4.2598    2.1118    5.0359 C.ar      1 <0>         0.0000
      5 C5         -5.0023    2.2594    6.1882 C.ar      1 <0>         0.0000
      6 C6          0.3724   -0.2122    1.9417 C.ar      1 <0>         0.0000
      7 C7          2.3494   -1.6335    1.8837 C.ar      1 <0>         0.0000
      8 C8          1.2585   -1.0830    2.5997 C.ar      1 <0>         0.0000
      9 C9         -3.1359    1.2650    5.1013 C.ar      1 <0>         0.0000
     10 C10        -4.5863    1.5582    7.3370 C.ar      1 <0>         0.0000
     11 C11        -2.2899    1.0554    3.9092 C.2       1 <0>         0.0000
     12 C12        -0.7660    0.3806    2.6344 C.2       1 <0>         0.0000
     13 C13        -5.3298    1.6637    8.6420 C.3       1 <0>         0.0000
     14 C14         4.2618   -3.0797    2.0308 C.3       1 <0>         0.0000
     15 N1         -2.7801    0.6179    6.2169 N.ar      1 <0>         0.0000
     16 N2         -3.5042    0.7651    7.3281 N.ar      1 <0>         0.0000
     17 N3         -1.1723    0.2541    3.8713 N.2       1 <0>         0.0000
     18 N4         -2.5758    1.6533    2.7684 N.2       1 <0>         0.0000
     19 O1         -1.5670    1.2124    1.9073 O.3       1 <0>         0.0000
     20 O2          1.0922   -1.4070    3.9019 O.3       1 <0>         0.0000
     21 O3          3.1325   -2.4662    2.6501 O.3       1 <0>         0.0000
     22 H1          1.8239   -0.2121   -1.1538 H         1 <0>         0.0000
     23 H2         -0.0926    0.7647    0.0753 H         1 <0>         0.0000
     24 H3          3.3921   -1.7499    0.0009 H         1 <0>         0.0000
     25 H4         -4.5130    2.6163    4.1090 H         1 <0>         0.0000
     26 H5         -5.8836    2.8951    6.2182 H         1 <0>         0.0000
     27 H6         -6.3901    1.4219    8.5117 H         1 <0>         0.0000
     28 H7         -4.8942    0.9782    9.3706 H         1 <0>         0.0000
     29 H8         -5.2724    2.6830    9.0406 H         1 <0>         0.0000
     30 H9          4.7335   -3.6883    2.8027 H         1 <0>         0.0000
     31 H10         4.9716   -2.3244    1.6743 H         1 <0>         0.0000
     32 H11         3.9516   -3.7203    1.1971 H         1 <0>         0.0000
     33 H12         1.8145   -2.0163    4.1434 H         1 <0>         0.0000
@<TRIPOS>BOND
     1    1    2 ar
     2    1    3 ar
     3    1   22 1
     4    2    6 ar
     5    2   23 1
     6    3    7 ar
     7    3   24 1
     8    4    5 ar
     9    4    9 ar
    10    4   25 1
    11    5   10 ar
    12    5   26 1
    13    6    8 ar
    14    6   12 1
    15    7    8 ar
    16    7   21 1
    17    8   20 1
    18    9   11 1
    19    9   15 ar
    20   10   13 1
    21   10   16 ar
    22   11   17 1
    23   11   18 2
    24   12   17 2
    25   12   19 1
    26   13   27 1
    27   13   28 1
    28   13   29 1
    29   14   21 1
    30   14   30 1
    31   14   31 1
    32   14   32 1
    33   15   16 ar
    34   18   19 1
    35   20   33 1
