@<TRIPOS>MOLECULE
*****
   35    37     0     0     0
SMALL
NO_CHARGES

@<TRIPOS>ATOM
      1 C1          2.0329   -0.5600   -0.0855 C.ar      1 <0>         0.0000
      2 C2          2.1696   -1.8223    0.5022 C.ar      1 <0>         0.0000
      3 C3          1.8104    0.5558    0.7279 C.ar      1 <0>         0.0000
      4 C4          0.5858   -0.4248    6.2515 C.ar      1 <0>         0.0000
      5 C5          1.4920   -1.1844    6.9967 C.ar      1 <0>         0.0000
      6 C6          4.9589   -4.5954    3.8784 C.ar      1 <0>         0.0000
      7 C7          6.0001   -3.9227    3.2319 C.ar      1 <0>         0.0000
      8 C8          2.0918   -1.9684    1.8885 C.ar      1 <0>         0.0000
      9 C9          1.7321    0.4075    2.1146 C.ar      1 <0>         0.0000
     10 C10         0.7389   -0.3325    4.8681 C.ar      1 <0>         0.0000
     11 C11         2.5407   -1.8349    6.3443 C.ar      1 <0>         0.0000
     12 C12         3.9098   -3.8603    4.4321 C.ar      1 <0>         0.0000
     13 C13         5.9813   -2.5281    3.1626 C.ar      1 <0>         0.0000
     14 C14         1.8770   -0.8546    2.7176 C.ar      1 <0>         0.0000
     15 C15         1.7887   -0.9843    4.1967 C.ar      1 <0>         0.0000
     16 C16         2.7128   -1.7425    4.9538 C.ar      1 <0>         0.0000
     17 C17         3.8718   -2.4588    4.3424 C.ar      1 <0>         0.0000
     18 C18         4.9324   -1.7750    3.7109 C.ar      1 <0>         0.0000
     19 C19         4.9716   -0.2683    3.6102 C.3       1 <0>         0.0000
     20 H1          2.0993   -0.4474   -1.1646 H         1 <0>         0.0000
     21 H2          2.3362   -2.6977   -0.1204 H         1 <0>         0.0000
     22 H3          1.7078    1.5431    0.2844 H         1 <0>         0.0000
     23 H4         -0.2409    0.0831    6.7416 H         1 <0>         0.0000
     24 H5          1.3865   -1.2672    8.0753 H         1 <0>         0.0000
     25 H6          4.9624   -5.6801    3.9494 H         1 <0>         0.0000
     26 H7          6.8256   -4.4784    2.7943 H         1 <0>         0.0000
     27 H8          2.1953   -2.9541    2.3289 H         1 <0>         0.0000
     28 H9          1.5879    1.2835    2.7418 H         1 <0>         0.0000
     29 H10         0.0142    0.2293    4.2849 H         1 <0>         0.0000
     30 H11         3.2610   -2.4116    6.9188 H         1 <0>         0.0000
     31 H12         3.0891   -4.3750    4.9259 H         1 <0>         0.0000
     32 H13         6.8031   -2.0060    2.6766 H         1 <0>         0.0000
     33 H14         4.4661    0.0766    2.7020 H         1 <0>         0.0000
     34 H15         4.4739    0.2083    4.4586 H         1 <0>         0.0000
     35 H16         6.0050    0.0891    3.5725 H         1 <0>         0.0000
@<TRIPOS>BOND
     1    1    3 ar
     2    1    2 ar
     3    1   20 1
     4    2    8 ar
     5    2   21 1
     6    3    9 ar
     7    3   22 1
     8    4    5 ar
     9    4   10 ar
    10    4   23 1
    11    5   11 ar
    12    5   24 1
    13    6    7 ar
    14    6   12 ar
    15    6   25 1
    16    7   13 ar
    17    7   26 1
    18    8   14 ar
    19    8   27 1
    20    9   14 ar
    21    9   28 1
    22   10   15 ar
    23   10   29 1
    24   11   16 ar
    25   11   30 1
    26   12   17 ar
    27   12   31 1
    28   13   18 ar
    29   13   32 1
    30   14   15 1
    31   15   16 ar
    32   16   17 1
    33   17   18 ar
    34   18   19 1
    35   19   33 1
    36   19   34 1
    37   19   35 1
