@<TRIPOS>MOLECULE
*****
   32    34     0     0     0
SMALL
NO_CHARGES

@<TRIPOS>ATOM
      1 C1          8.5682   -3.9542    2.5648 C.1       1 <0>         0.0000
      2 C2          9.0558    4.1948    3.3491 C.ar      1 <0>         0.0000
      3 C3          7.8417    4.7074    3.8151 C.ar      1 <0>         0.0000
      4 C4          4.9238   -6.0401    5.7382 C.2       1 <0>         0.0000
      5 C5          9.1663    2.8311    3.0903 C.ar      1 <0>         0.0000
      6 C6          6.7561    3.8510    4.0093 C.ar      1 <0>         0.0000
      7 C7          5.2654   -4.6913    5.4819 C.2       1 <0>         0.0000
      8 C8          5.7022   -6.9173    5.0133 C.2       1 <0>         0.0000
      9 C9          8.0758    1.9643    3.2909 C.ar      1 <0>         0.0000
     10 C10         6.8408    2.4737    3.7555 C.ar      1 <0>         0.0000
     11 C11         6.3024   -4.5457    4.5630 C.2       1 <0>         0.0000
     12 C12         8.2812    0.5365    2.9877 C.2       1 <0>         0.0000
     13 C13         8.1384   -1.5634    3.0289 C.2       1 <0>         0.0000
     14 C14         6.8143   -3.2762    4.1515 C.2       1 <0>         0.0000
     15 C15         7.8142   -2.9641    3.2701 C.2       1 <0>         0.0000
     16 C16         5.6151    1.6151    3.9716 C.3       1 <0>         0.0000
     17 N1          9.1714   -4.7771    2.0007 N.1       1 <0>         0.0000
     18 N2          7.5881   -0.5078    3.5723 N.2       1 <0>         0.0000
     19 N3          9.2034    0.1443    2.1243 N.2       1 <0>         0.0000
     20 O1          9.1151   -1.2602    2.1545 O.3       1 <0>         0.0000
     21 S1          6.8558   -6.1189    4.0141 S.3       1 <0>         0.0000
     22 H1          9.9089    4.8494    3.1934 H         1 <0>         0.0000
     23 H2          7.7382    5.7690    4.0251 H         1 <0>         0.0000
     24 H3          4.1438   -6.3565    6.4220 H         1 <0>         0.0000
     25 H4         10.1041    2.4164    2.7345 H         1 <0>         0.0000
     26 H5          5.8123    4.2593    4.3626 H         1 <0>         0.0000
     27 H6          4.7798   -3.8382    5.9454 H         1 <0>         0.0000
     28 H7          5.6568   -7.9996    5.0152 H         1 <0>         0.0000
     29 H8          6.3284   -2.4203    4.6156 H         1 <0>         0.0000
     30 H9          5.4059    0.9803    3.1063 H         1 <0>         0.0000
     31 H10         5.7451    0.9446    4.8253 H         1 <0>         0.0000
     32 H11         4.7416    2.2465    4.1550 H         1 <0>         0.0000
@<TRIPOS>BOND
     1    1   15 1
     2    1   17 3
     3    2    3 ar
     4    2    5 ar
     5    2   22 1
     6    3    6 ar
     7    3   23 1
     8    4    7 1
     9    4    8 2
    10    4   24 1
    11    5    9 ar
    12    5   25 1
    13    6   10 ar
    14    6   26 1
    15    7   11 2
    16    7   27 1
    17    8   21 1
    18    8   28 1
    19    9   10 ar
    20    9   12 1
    21   10   16 1
    22   11   14 1
    23   11   21 1
    24   12   18 1
    25   12   19 2
    26   13   15 1
    27   13   18 2
    28   13   20 1
    29   14   15 2
    30   14   29 1
    31   16   30 1
    32   16   31 1
    33   16   32 1
    34   19   20 1
