@<TRIPOS>MOLECULE
*****
   39    42     0     0     0
SMALL
NO_CHARGES

@<TRIPOS>ATOM
      1 C1          5.9720   -2.5531    5.0405 C.ar      1 <0>         0.0000
      2 C2          3.0257    2.3103   -4.7968 C.ar      1 <0>         0.0000
      3 C3          4.8117   -2.9277    4.3934 C.ar      1 <0>         0.0000
      4 C4          2.7127    1.5064   -3.6995 C.ar      1 <0>         0.0000
      5 C5          6.4357   -1.2168    4.9734 C.ar      1 <0>         0.0000
      6 C6          2.2076   -1.2891    2.2643 C.ar      1 <0>         0.0000
      7 C7          2.1750    3.3740   -5.1115 C.ar      1 <0>         0.0000
      8 C8          0.7870    2.8813   -3.3594 C.ar      1 <0>         0.0000
      9 C9          4.0748   -1.9670    3.6556 C.ar      1 <0>         0.0000
     10 C10         1.5636    1.7860   -2.9502 C.ar      1 <0>         0.0000
     11 C11         4.5170   -0.6099    3.5698 C.ar      1 <0>         0.0000
     12 C12         2.8687   -2.2783    2.9599 C.ar      1 <0>         0.0000
     13 C13         5.7205   -0.2869    4.2562 C.ar      1 <0>         0.0000
     14 C14         2.7455    0.0251    2.2565 C.ar      1 <0>         0.0000
     15 C15         0.6050    1.6279   -0.4947 C.3       1 <0>         0.0000
     16 C16         2.2384    0.3397   -0.8466 C.3       1 <0>         0.0000
     17 C17         1.1535    0.9434   -1.7759 C.3       1 <0>         0.0000
     18 C18         2.0062    1.1277    1.5246 C.3       1 <0>         0.0000
     19 N1          1.0705    3.6633   -4.4090 N.ar      1 <0>         0.0000
     20 N2          3.8620    0.3633    2.8758 N.ar      1 <0>         0.0000
     21 N3          1.3640    0.6444    0.3133 N.3       1 <0>         0.0000
     22 O1          2.4334   -3.5699    3.0281 O.3       1 <0>         0.0000
     23 F1          6.1692    0.9842    4.1962 F         1 <0>         0.0000
     24 H1          6.5414   -3.2828    5.6089 H         1 <0>         0.0000
     25 H2          3.9118    2.1223   -5.3968 H         1 <0>         0.0000
     26 H3          4.4504   -3.9492    4.4403 H         1 <0>         0.0000
     27 H4          3.3568    0.6734   -3.4266 H         1 <0>         0.0000
     28 H5          7.3468   -0.9098    5.4781 H         1 <0>         0.0000
     29 H6          1.2913   -1.4823    1.7119 H         1 <0>         0.0000
     30 H7          2.3896    4.0220   -5.9600 H         1 <0>         0.0000
     31 H8         -0.1143    3.1427   -2.8046 H         1 <0>         0.0000
     32 H9          0.9895    2.6550   -0.3936 H         1 <0>         0.0000
     33 H10        -0.4766    1.6253   -0.3237 H         1 <0>         0.0000
     34 H11         2.4960   -0.7180   -0.9633 H         1 <0>         0.0000
     35 H12         3.1616    0.9405   -0.8501 H         1 <0>         0.0000
     36 H13         0.4637    0.1576   -2.1014 H         1 <0>         0.0000
     37 H14         1.2232    1.5242    2.1851 H         1 <0>         0.0000
     38 H15         2.7195    1.9468    1.3366 H         1 <0>         0.0000
     39 H16         1.6063   -3.6511    2.5252 H         1 <0>         0.0000
@<TRIPOS>BOND
     1    1    3 ar
     2    1    5 ar
     3    1   24 1
     4    2    4 ar
     5    2    7 ar
     6    2   25 1
     7    3    9 ar
     8    3   26 1
     9    4   10 ar
    10    4   27 1
    11    5   13 ar
    12    5   28 1
    13    6   12 ar
    14    6   14 ar
    15    6   29 1
    16    7   19 ar
    17    7   30 1
    18    8   10 ar
    19    8   19 ar
    20    8   31 1
    21    9   11 ar
    22    9   12 ar
    23   10   17 1
    24   11   13 ar
    25   11   20 ar
    26   12   22 1
    27   13   23 1
    28   14   18 1
    29   14   20 ar
    30   15   17 1
    31   15   21 1
    32   15   32 1
    33   15   33 1
    34   16   17 1
    35   16   21 1
    36   16   34 1
    37   16   35 1
    38   17   36 1
    39   18   21 1
    40   18   37 1
    41   18   38 1
    42   22   39 1
