@<TRIPOS>MOLECULE
*****
   68    70     0     0     0
SMALL
NO_CHARGES

@<TRIPOS>ATOM
      1 C1         -5.1050    2.0556   -0.3609 C.ar      1 <0>         0.0000
      2 C2         -3.7806    1.9681   -0.7867 C.ar      1 <0>         0.0000
      3 C3         -4.7620    0.1696    1.1002 C.ar      1 <0>         0.0000
      4 C4         -3.4333    0.0813    0.6721 C.ar      1 <0>         0.0000
      5 C5         -5.6134    1.1512    0.5843 C.ar      1 <0>         0.0000
      6 C6         -2.9301    0.9734   -0.2796 C.ar      1 <0>         0.0000
      7 C7         -8.0566    0.6044   -0.0345 C.3       1 <0>         0.0000
      8 C8         -1.3819    0.1733   -2.1875 C.3       1 <0>         0.0000
      9 C9         -9.1132    1.7143   -0.1544 C.3       1 <0>         0.0000
     10 C10        -0.5400    1.2024   -2.9545 C.3       1 <0>         0.0000
     11 C11        -7.0609    1.1966    1.0027 C.3       1 <0>         0.0000
     12 C12        -1.5157    0.8312   -0.7811 C.3       1 <0>         0.0000
     13 C13        -8.8745    4.5345    2.3866 C.3       1 <0>         0.0000
     14 C14         1.3857    3.1684   -3.5823 C.3       1 <0>         0.0000
     15 C15       -11.4124    3.8521   -0.5216 C.3       1 <0>         0.0000
     16 C16       -11.6883    2.9629    1.8263 C.3       1 <0>         0.0000
     17 C17       -11.4107    5.4114    1.3894 C.3       1 <0>         0.0000
     18 C18         1.0504    3.6856    0.3091 C.3       1 <0>         0.0000
     19 C19         2.9806    2.8784   -1.0584 C.3       1 <0>         0.0000
     20 C20         2.0704    5.2085   -1.3705 C.3       1 <0>         0.0000
     21 C21        -9.4008    3.8857    1.0963 C.3       1 <0>         0.0000
     22 C22         0.7210    3.2325   -2.1972 C.3       1 <0>         0.0000
     23 C23       -10.9610    3.9996    0.9493 C.3       1 <0>         0.0000
     24 C24         1.7027    3.7372   -1.0870 C.3       1 <0>         0.0000
     25 N1         -8.9399    2.4809    1.0905 N.3       1 <0>         0.0000
     26 N2          0.1733    1.9009   -1.8708 N.3       1 <0>         0.0000
     27 O1         -7.4703    2.5575    1.1486 O.3       1 <0>         0.0000
     28 O2         -0.9390    2.1303   -0.9402 O.3       1 <0>         0.0000
     29 H1         -5.7527    2.8383   -0.7451 H         1 <0>         0.0000
     30 H2         -3.3886    2.6829   -1.5043 H         1 <0>         0.0000
     31 H3         -5.1335   -0.5262    1.8497 H         1 <0>         0.0000
     32 H4         -2.7820   -0.6825    1.0921 H         1 <0>         0.0000
     33 H5         -8.4856   -0.3308    0.3337 H         1 <0>         0.0000
     34 H6         -7.5742    0.4062   -0.9937 H         1 <0>         0.0000
     35 H7         -2.3538    0.0136   -2.6587 H         1 <0>         0.0000
     36 H8         -0.8722   -0.7903   -2.1117 H         1 <0>         0.0000
     37 H9         -8.9288    2.3379   -1.0424 H         1 <0>         0.0000
     38 H10       -10.1252    1.3120   -0.2025 H         1 <0>         0.0000
     39 H11         0.1759    0.7427   -3.6382 H         1 <0>         0.0000
     40 H12        -1.1911    1.8883   -3.5190 H         1 <0>         0.0000
     41 H13        -7.1885    0.6829    1.9643 H         1 <0>         0.0000
     42 H14        -0.9192    0.2628   -0.0555 H         1 <0>         0.0000
     43 H15        -9.3678    4.1138    3.2683 H         1 <0>         0.0000
     44 H16        -9.0376    5.6136    2.3757 H         1 <0>         0.0000
     45 H17        -7.8043    4.3560    2.4833 H         1 <0>         0.0000
     46 H18         2.1070    2.3488   -3.6427 H         1 <0>         0.0000
     47 H19         1.9152    4.0978   -3.7963 H         1 <0>         0.0000
     48 H20         0.6460    3.0308   -4.3743 H         1 <0>         0.0000
     49 H21       -10.8934    4.5728   -1.1638 H         1 <0>         0.0000
     50 H22       -11.2445    2.8568   -0.9328 H         1 <0>         0.0000
     51 H23       -12.4865    4.0536   -0.6003 H         1 <0>         0.0000
     52 H24       -11.3898    3.0474    2.8754 H         1 <0>         0.0000
     53 H25       -11.4816    1.9373    1.5109 H         1 <0>         0.0000
     54 H26       -12.7713    3.1225    1.7710 H         1 <0>         0.0000
     55 H27       -11.2795    5.5746    2.4616 H         1 <0>         0.0000
     56 H28       -12.4744    5.5431    1.1646 H         1 <0>         0.0000
     57 H29       -10.8606    6.1943    0.8545 H         1 <0>         0.0000
     58 H30         0.1024    4.2316    0.3323 H         1 <0>         0.0000
     59 H31         0.8461    2.6603    0.6210 H         1 <0>         0.0000
     60 H32         1.7265    4.1411    1.0422 H         1 <0>         0.0000
     61 H33         3.5788    2.9954   -1.9679 H         1 <0>         0.0000
     62 H34         2.7283    1.8195   -0.9456 H         1 <0>         0.0000
     63 H35         3.6126    3.1703   -0.2123 H         1 <0>         0.0000
     64 H36         2.6421    5.3339   -2.2949 H         1 <0>         0.0000
     65 H37         2.6866    5.6030   -0.5554 H         1 <0>         0.0000
     66 H38         1.1732    5.8352   -1.4385 H         1 <0>         0.0000
     67 H39        -8.9480    4.4137    0.2378 H         1 <0>         0.0000
     68 H40        -0.1210    3.9427   -2.2508 H         1 <0>         0.0000
@<TRIPOS>BOND
     1    1    2 ar
     2    1    5 ar
     3    1   29 1
     4    2    6 ar
     5    2   30 1
     6    3    4 ar
     7    3    5 ar
     8    3   31 1
     9    4    6 ar
    10    4   32 1
    11    5   11 1
    12    6   12 1
    13    7    9 1
    14    7   11 1
    15    7   33 1
    16    7   34 1
    17    8   10 1
    18    8   12 1
    19    8   35 1
    20    8   36 1
    21    9   25 1
    22    9   37 1
    23    9   38 1
    24   10   26 1
    25   10   39 1
    26   10   40 1
    27   11   27 1
    28   11   41 1
    29   12   28 1
    30   12   42 1
    31   13   21 1
    32   13   43 1
    33   13   44 1
    34   13   45 1
    35   14   22 1
    36   14   46 1
    37   14   47 1
    38   14   48 1
    39   15   23 1
    40   15   49 1
    41   15   50 1
    42   15   51 1
    43   16   23 1
    44   16   52 1
    45   16   53 1
    46   16   54 1
    47   17   23 1
    48   17   55 1
    49   17   56 1
    50   17   57 1
    51   18   24 1
    52   18   58 1
    53   18   59 1
    54   18   60 1
    55   19   24 1
    56   19   61 1
    57   19   62 1
    58   19   63 1
    59   20   24 1
    60   20   64 1
    61   20   65 1
    62   20   66 1
    63   21   23 1
    64   21   25 1
    65   21   67 1
    66   22   24 1
    67   22   26 1
    68   22   68 1
    69   25   27 1
    70   26   28 1
