@<TRIPOS>MOLECULE
*****
   18    18     0     0     0
SMALL
NO_CHARGES

@<TRIPOS>ATOM
      1 C1          2.7750    0.9218    0.7683 C.1       1 <0>         0.0000
      2 C2          3.8950   -3.7845    1.1445 C.2       1 <0>         0.0000
      3 C3          4.4768   -3.3835   -0.0297 C.2       1 <0>         0.0000
      4 C4          2.7118   -3.0322    1.4141 C.2       1 <0>         0.0000
      5 C5          2.4067   -2.0842    0.4693 C.2       1 <0>         0.0000
      6 C6          1.6269    0.1715    1.2920 C.3       1 <0>         0.0000
      7 C7          1.2778   -1.0908    0.4640 C.3       1 <0>         0.0000
      8 N1          3.6865    1.5253    0.3732 N.1       1 <0>         0.0000
      9 N2          0.9653   -0.7019   -0.9139 N.3       1 <0>         0.0000
     10 S1          3.6039   -2.0994   -0.7961 S.3       1 <0>         0.0000
     11 Br1         1.6577   -3.3238    2.9817 Br        1 <0>         0.0000
     12 H1          4.2749   -4.5706    1.7867 H         1 <0>         0.0000
     13 H2          5.3753   -3.7750   -0.4899 H         1 <0>         0.0000
     14 H3          1.8432   -0.1259    2.3220 H         1 <0>         0.0000
     15 H4          0.7601    0.8423    1.3214 H         1 <0>         0.0000
     16 H5          0.4329   -1.5578    0.9924 H         1 <0>         0.0000
     17 H6          0.2303    0.0031   -0.9272 H         1 <0>         0.0000
     18 H7          0.6222   -1.5079   -1.4330 H         1 <0>         0.0000
@<TRIPOS>BOND
     1    1    6 1
     2    1    8 3
     3    2    3 2
     4    2    4 1
     5    2   12 1
     6    3   10 1
     7    3   13 1
     8    4    5 2
     9    4   11 1
    10    5    7 1
    11    5   10 1
    12    6    7 1
    13    6   14 1
    14    6   15 1
    15    7    9 1
    16    7   16 1
    17    9   17 1
    18    9   18 1
