@<TRIPOS>MOLECULE
*****
   31    31     0     0     0
SMALL
NO_CHARGES

@<TRIPOS>ATOM
      1 C1         -0.2996    1.6328    1.6768 C.2       1 <0>         0.0000
      2 C2          1.3884    0.3520    0.3034 C.3       1 <0>         0.0000
      3 C3         -1.0685    0.1103   -0.1799 C.3       1 <0>         0.0000
      4 C4          1.6244   -0.9154   -0.5208 C.3       1 <0>         0.0000
      5 C5         -0.7358   -1.1478   -0.9847 C.3       1 <0>         0.0000
      6 C6         -0.0203    0.3283    0.9318 C.3       1 <0>         0.0000
      7 C7         -0.3744    5.0661    0.4619 C.3       1 <0>         0.0000
      8 C8          1.1089   -1.9175   -3.6548 C.3       1 <0>         0.0000
      9 C9         -0.4973    3.9958    1.5294 C.3       1 <0>         0.0000
     10 N1          0.6024   -1.0028   -1.5718 N.3       1 <0>         0.0000
     11 O1         -0.5565    1.6670    2.8707 O.2       1 <0>         0.0000
     12 O2         -0.0968   -0.7427    1.8684 O.3       1 <0>         0.0000
     13 O3         -0.2362    2.7144    0.8889 O.3       1 <0>         0.0000
     14 O4          0.8641   -2.2339   -2.2882 O.3       1 <0>         0.0000
     15 H1          2.1360    0.4164    1.1003 H         1 <0>         0.0000
     16 H2          1.4863    1.2324   -0.3378 H         1 <0>         0.0000
     17 H3         -1.0820    0.9795   -0.8435 H         1 <0>         0.0000
     18 H4         -2.0585    0.0042    0.2751 H         1 <0>         0.0000
     19 H5          2.6030   -0.8690   -1.0071 H         1 <0>         0.0000
     20 H6          1.6023   -1.8031    0.1275 H         1 <0>         0.0000
     21 H7         -0.7920   -2.0385   -0.3425 H         1 <0>         0.0000
     22 H8         -1.4505   -1.2686   -1.8038 H         1 <0>         0.0000
     23 H9          0.6294    5.0721    0.0274 H         1 <0>         0.0000
     24 H10        -1.0995    4.9034   -0.3407 H         1 <0>         0.0000
     25 H11        -0.5646    6.0490    0.9047 H         1 <0>         0.0000
     26 H12         1.3004   -2.8729   -4.1520 H         1 <0>         0.0000
     27 H13         1.9838   -1.2639   -3.7633 H         1 <0>         0.0000
     28 H14         0.2392   -1.4306   -4.1142 H         1 <0>         0.0000
     29 H15        -1.4968    3.9632    1.9711 H         1 <0>         0.0000
     30 H16         0.2263    4.1310    2.3377 H         1 <0>         0.0000
     31 H17        -0.3303   -0.3416    2.7272 H         1 <0>         0.0000
@<TRIPOS>BOND
     1    1    6 1
     2    1   11 2
     3    1   13 1
     4    2    4 1
     5    2    6 1
     6    2   15 1
     7    2   16 1
     8    3    5 1
     9    3    6 1
    10    3   17 1
    11    3   18 1
    12    4   10 1
    13    4   19 1
    14    4   20 1
    15    5   10 1
    16    5   21 1
    17    5   22 1
    18    6   12 1
    19    7    9 1
    20    7   23 1
    21    7   24 1
    22    7   25 1
    23    8   14 1
    24    8   26 1
    25    8   27 1
    26    8   28 1
    27    9   13 1
    28    9   29 1
    29    9   30 1
    30   10   14 1
    31   12   31 1
