@<TRIPOS>MOLECULE
*****
   59    62     0     0     0
SMALL
NO_CHARGES

@<TRIPOS>ATOM
      1 C1          0.7989    1.1491    0.5915 C.ar      1 <0>         0.0000
      2 C2          0.1995    3.2455   -0.4544 C.ar      1 <0>         0.0000
      3 C3         -1.5164   -0.0002   -0.9926 C.ar      1 <0>         0.0000
      4 C4          2.0178    1.6927    0.9837 C.ar      1 <0>         0.0000
      5 C5          1.4168    3.7955   -0.0615 C.ar      1 <0>         0.0000
      6 C6         -2.7400   -0.5583   -1.3373 C.ar      1 <0>         0.0000
      7 C7         -4.5615   -1.8399    1.6086 C.ar      1 <0>         0.0000
      8 C8         -3.2602   -3.5137    0.4385 C.ar      1 <0>         0.0000
      9 C9         -3.3983   -1.3112    2.1659 C.ar      1 <0>         0.0000
     10 C10        -2.0900   -2.9943    1.0037 C.ar      1 <0>         0.0000
     11 C11        -2.6124    2.0803   -0.4866 C.ar      1 <0>         0.0000
     12 C12        -0.1321    1.9143   -0.1387 C.ar      1 <0>         0.0000
     13 C13        -1.4278    1.3318   -0.5489 C.ar      1 <0>         0.0000
     14 C14         2.3385    3.0207    0.6605 C.ar      1 <0>         0.0000
     15 C15        -3.8565    1.5375   -0.8181 C.ar      1 <0>         0.0000
     16 C16        -3.9149    0.1948   -1.2263 C.ar      1 <0>         0.0000
     17 C17        -4.5022   -2.9345    0.7335 C.ar      1 <0>         0.0000
     18 C18        -2.1769   -1.8965    1.8468 C.ar      1 <0>         0.0000
     19 C19         3.6470    3.5584    1.1006 C.2       1 <0>         0.0000
     20 C20        -5.1370    2.3287   -0.7055 C.3       1 <0>         0.0000
     21 C21        -6.2963    1.3795   -0.4012 C.3       1 <0>         0.0000
     22 C22        -6.3375    0.2310   -1.4088 C.3       1 <0>         0.0000
     23 C23        -7.3830   -0.8039   -1.0015 C.3       1 <0>         0.0000
     24 C24        -8.0439   -3.1450   -1.3961 C.3       1 <0>         0.0000
     25 C25        -5.6449   -3.9851   -1.0787 C.3       1 <0>         0.0000
     26 C26        -7.0467   -4.3022   -1.5711 C.3       1 <0>         0.0000
     27 N1         -7.5369   -1.8913   -1.9648 N.3       1 <0>         0.0000
     28 O1          4.4894    2.9383    1.7286 O.2       1 <0>         0.0000
     29 O2         -5.0798   -0.4678   -1.5021 O.3       1 <0>         0.0000
     30 O3          3.8470    4.8587    0.7337 O.3       1 <0>         0.0000
     31 O4         -7.5020   -5.4730   -0.8811 O.3       1 <0>         0.0000
     32 O5         -5.6941   -3.3838    0.2231 O.3       1 <0>         0.0000
     33 F1         -1.0322   -1.3675    2.3658 F         1 <0>         0.0000
     34 H1          0.5433    0.1350    0.8843 H         1 <0>         0.0000
     35 H2         -0.4940    3.8438   -1.0389 H         1 <0>         0.0000
     36 H3         -0.6157   -0.6016   -1.0761 H         1 <0>         0.0000
     37 H4          2.7309    1.1068    1.5555 H         1 <0>         0.0000
     38 H5          1.6634    4.8198   -0.3206 H         1 <0>         0.0000
     39 H6         -2.8119   -1.5892   -1.6655 H         1 <0>         0.0000
     40 H7         -5.5287   -1.4017    1.8334 H         1 <0>         0.0000
     41 H8         -3.1879   -4.3657   -0.2274 H         1 <0>         0.0000
     42 H9         -3.4282   -0.4475    2.8228 H         1 <0>         0.0000
     43 H10        -1.1202   -3.4278    0.7791 H         1 <0>         0.0000
     44 H11        -2.5766    3.1051   -0.1228 H         1 <0>         0.0000
     45 H12        -5.0458    3.0901    0.0758 H         1 <0>         0.0000
     46 H13        -5.3362    2.8629   -1.6442 H         1 <0>         0.0000
     47 H14        -6.1781    0.9664    0.6077 H         1 <0>         0.0000
     48 H15        -7.2545    1.9085   -0.4313 H         1 <0>         0.0000
     49 H16        -6.5612    0.6310   -2.4091 H         1 <0>         0.0000
     50 H17        -8.3292   -0.2725   -0.7971 H         1 <0>         0.0000
     51 H18        -7.0464   -1.2436   -0.0613 H         1 <0>         0.0000
     52 H19        -8.9931   -3.4357   -1.8694 H         1 <0>         0.0000
     53 H20        -8.2475   -3.0402   -0.3260 H         1 <0>         0.0000
     54 H21        -5.1686   -3.2847   -1.7713 H         1 <0>         0.0000
     55 H22        -5.0854   -4.9266   -1.0497 H         1 <0>         0.0000
     56 H23        -6.9384   -4.5173   -2.6462 H         1 <0>         0.0000
     57 H24        -8.1026   -1.5924   -2.7518 H         1 <0>         0.0000
     58 H25         4.7306    5.0925    1.0756 H         1 <0>         0.0000
     59 H26        -8.3978   -5.6801   -1.1912 H         1 <0>         0.0000
@<TRIPOS>BOND
     1    1    4 ar
     2    1   12 ar
     3    1   34 1
     4    2    5 ar
     5    2   12 ar
     6    2   35 1
     7    3    6 ar
     8    3   13 ar
     9    3   36 1
    10    4   14 ar
    11    4   37 1
    12    5   14 ar
    13    5   38 1
    14    6   16 ar
    15    6   39 1
    16    7    9 ar
    17    7   17 ar
    18    7   40 1
    19    8   10 ar
    20    8   17 ar
    21    8   41 1
    22    9   18 ar
    23    9   42 1
    24   10   18 ar
    25   10   43 1
    26   11   13 ar
    27   11   15 ar
    28   11   44 1
    29   12   13 1
    30   14   19 1
    31   15   16 ar
    32   15   20 1
    33   16   29 1
    34   17   32 1
    35   18   33 1
    36   19   28 2
    37   19   30 1
    38   20   21 1
    39   20   45 1
    40   20   46 1
    41   21   22 1
    42   21   47 1
    43   21   48 1
    44   22   23 1
    45   22   29 1
    46   22   49 1
    47   23   27 1
    48   23   50 1
    49   23   51 1
    50   24   26 1
    51   24   27 1
    52   24   52 1
    53   24   53 1
    54   25   26 1
    55   25   32 1
    56   25   54 1
    57   25   55 1
    58   26   31 1
    59   26   56 1
    60   27   57 1
    61   30   58 1
    62   31   59 1
