@<TRIPOS>MOLECULE
*****
   20    20     0     0     0
SMALL
NO_CHARGES

@<TRIPOS>ATOM
      1 C1          1.9394   -1.0664   -0.1171 C.ar      1 <0>         0.0000
      2 C2          0.7689   -0.4886    1.9330 C.ar      1 <0>         0.0000
      3 C3          0.8399   -0.4829    0.5312 C.ar      1 <0>         0.0000
      4 C4          2.9486   -1.6452    0.6412 C.ar      1 <0>         0.0000
      5 C5          1.7883   -1.0725    2.6659 C.ar      1 <0>         0.0000
      6 C6          2.8896   -1.6575    2.0345 C.ar      1 <0>         0.0000
      7 C7         -0.2902    0.1628   -0.2241 C.2       1 <0>         0.0000
      8 C8         -1.4476    0.8558   -2.3817 C.3       1 <0>         0.0000
      9 C9         -0.2357    0.1777   -1.7445 C.3       1 <0>         0.0000
     10 O1         -1.2259    0.6613    0.3871 O.2       1 <0>         0.0000
     11 F1          4.0129   -2.2106    0.0386 F         1 <0>         0.0000
     12 F2          1.7434   -1.0909    4.0113 F         1 <0>         0.0000
     13 F3          3.8692   -2.2189    2.7535 F         1 <0>         0.0000
     14 H1          2.0350   -1.0842   -1.1967 H         1 <0>         0.0000
     15 H2         -0.0812   -0.0372    2.4337 H         1 <0>         0.0000
     16 H3         -2.3740    0.3512   -2.0961 H         1 <0>         0.0000
     17 H4         -1.5294    1.8965   -2.0583 H         1 <0>         0.0000
     18 H5         -1.3622    0.8358   -3.4724 H         1 <0>         0.0000
     19 H6          0.6931    0.6781   -2.0488 H         1 <0>         0.0000
     20 H7         -0.1414   -0.8582   -2.0954 H         1 <0>         0.0000
@<TRIPOS>BOND
     1    1    3 ar
     2    1    4 ar
     3    1   14 1
     4    2    3 ar
     5    2    5 ar
     6    2   15 1
     7    3    7 1
     8    4    6 ar
     9    4   11 1
    10    5    6 ar
    11    5   12 1
    12    6   13 1
    13    7    9 1
    14    7   10 2
    15    8    9 1
    16    8   16 1
    17    8   17 1
    18    8   18 1
    19    9   19 1
    20    9   20 1
