@<TRIPOS>MOLECULE
*****
   21    22     0     0     0
SMALL
NO_CHARGES

@<TRIPOS>ATOM
      1 C1         -0.0378    3.3127    2.4731 C.ar      1 <0>         0.0000
      2 C2          0.3373    2.3569    1.5239 C.ar      1 <0>         0.0000
      3 C3         -0.8764    2.9735    3.5428 C.ar      1 <0>         0.0000
      4 C4         -0.9795    0.6885    2.6717 C.ar      1 <0>         0.0000
      5 C5         -0.1325    1.0358    1.6041 C.ar      1 <0>         0.0000
      6 C6         -1.3480    1.6620    3.6031 C.ar      1 <0>         0.0000
      7 C7          0.4448   -1.4603    0.9258 C.3       1 <0>         0.0000
      8 C8          1.7763   -1.3615    0.1388 C.3       1 <0>         0.0000
      9 C9          0.2195    0.0265    0.5397 C.3       1 <0>         0.0000
     10 N1          1.5994    0.1178   -0.0523 N.3       1 <0>         0.0000
     11 I1         -2.1485    0.9221    5.5949 I         1 <0>         0.0000
     12 H1          0.3297    4.3326    2.3902 H         1 <0>         0.0000
     13 H2          0.9945    2.6422    0.7063 H         1 <0>         0.0000
     14 H3         -1.1567    3.7116    4.2868 H         1 <0>         0.0000
     15 H4         -1.3375   -0.3314    2.7699 H         1 <0>         0.0000
     16 H5         -0.2953   -2.1761    0.5582 H         1 <0>         0.0000
     17 H6          0.5905   -1.6127    1.9986 H         1 <0>         0.0000
     18 H7          2.6795   -1.6443    0.6884 H         1 <0>         0.0000
     19 H8          1.7723   -1.8857   -0.8221 H         1 <0>         0.0000
     20 H9         -0.5161    0.1194   -0.2702 H         1 <0>         0.0000
     21 H10         2.2148    0.6216    0.5849 H         1 <0>         0.0000
@<TRIPOS>BOND
     1    1    2 ar
     2    1    3 ar
     3    1   12 1
     4    2    5 ar
     5    2   13 1
     6    3    6 ar
     7    3   14 1
     8    4    5 ar
     9    4    6 ar
    10    4   15 1
    11    5    9 1
    12    6   11 1
    13    7    8 1
    14    7    9 1
    15    7   16 1
    16    7   17 1
    17    8   10 1
    18    8   18 1
    19    8   19 1
    20    9   10 1
    21    9   20 1
    22   10   21 1
