@<TRIPOS>MOLECULE
*****
   18    18     0     0     0
SMALL
NO_CHARGES

@<TRIPOS>ATOM
      1 C1         -0.2146    0.0884    1.0310 C.ar      1 <0>         0.0000
      2 C2          0.2366    0.9525    3.2139 C.ar      1 <0>         0.0000
      3 C3          0.5771    0.8856    1.8585 C.ar      1 <0>         0.0000
      4 C4         -1.5111   -0.4607    2.8329 C.ar      1 <0>         0.0000
      5 C5         -2.7064   -1.2322    3.3840 C.2       1 <0>         0.0000
      6 C6         -4.6630   -2.8112    3.0470 C.3       1 <0>         0.0000
      7 C7         -3.4946   -2.0726    2.3976 C.3       1 <0>         0.0000
      8 N1         -1.2598   -0.5854    1.5202 N.ar      1 <0>         0.0000
      9 N2         -0.8065    0.2802    3.7002 N.ar      1 <0>         0.0000
     10 O1         -2.9877   -1.1543    4.5661 O.2       1 <0>         0.0000
     11 Br1         2.0672    1.8475    1.1681 Br        1 <0>         0.0000
     12 H1         -0.0056   -0.0082   -0.0324 H         1 <0>         0.0000
     13 H2          0.8146    1.5565    3.9110 H         1 <0>         0.0000
     14 H3         -4.3152   -3.4810    3.8382 H         1 <0>         0.0000
     15 H4         -5.3688   -2.1105    3.5014 H         1 <0>         0.0000
     16 H5         -5.1977   -3.4057    2.2999 H         1 <0>         0.0000
     17 H6         -3.8320   -1.4138    1.5880 H         1 <0>         0.0000
     18 H7         -2.7976   -2.7653    1.9104 H         1 <0>         0.0000
@<TRIPOS>BOND
     1    1    3 ar
     2    1    8 ar
     3    1   12 1
     4    2    3 ar
     5    2    9 ar
     6    2   13 1
     7    3   11 1
     8    4    5 1
     9    4    8 ar
    10    4    9 ar
    11    5    7 1
    12    5   10 2
    13    6    7 1
    14    6   14 1
    15    6   15 1
    16    6   16 1
    17    7   17 1
    18    7   18 1
