@<TRIPOS>MOLECULE
*****
   15    14     0     0     0
SMALL
NO_CHARGES

@<TRIPOS>ATOM
      1 C1          4.9414   -1.9253    5.0850 C.1       1 <0>         0.0000
      2 C2         -0.8679   -2.3171    3.6137 C.3       1 <0>         0.0000
      3 C3          3.6970   -2.8367    3.0951 C.3       1 <0>         0.0000
      4 C4          2.7478   -1.6522    2.8932 C.3       1 <0>         0.0000
      5 N1          4.7035   -2.5428    4.0844 N.2       1 <0>         0.0000
      6 S1          5.3693   -1.1522    6.4077 S.2       1 <0>         0.0000
      7 S2          0.2536   -3.4021    2.6523 S.3       1 <0>         0.0000
      8 S3          1.4475   -2.0082    1.6501 S.3       1 <0>         0.0000
      9 H1         -1.5564   -2.9812    4.1451 H         1 <0>         0.0000
     10 H2         -1.4336   -1.6641    2.9471 H         1 <0>         0.0000
     11 H3         -0.3123   -1.7222    4.3418 H         1 <0>         0.0000
     12 H4          4.1918   -3.0915    2.1545 H         1 <0>         0.0000
     13 H5          3.1336   -3.7170    3.4223 H         1 <0>         0.0000
     14 H6          2.2845   -1.3647    3.8406 H         1 <0>         0.0000
     15 H7          3.2916   -0.7853    2.5044 H         1 <0>         0.0000
@<TRIPOS>BOND
     1    1    5 2
     2    1    6 2
     3    2    7 1
     4    2    9 1
     5    2   10 1
     6    2   11 1
     7    3    4 1
     8    3    5 1
     9    3   12 1
    10    3   13 1
    11    4    8 1
    12    4   14 1
    13    4   15 1
    14    7    8 1
