@<TRIPOS>MOLECULE
*****
   21    22     0     0     0
SMALL
NO_CHARGES

@<TRIPOS>ATOM
      1 C1          1.1948   -5.5653   -1.7638 C.2       1 <0>         0.0000
      2 C2          0.7147   -4.4188   -1.0675 C.2       1 <0>         0.0000
      3 C3          1.9393   -5.0925   -2.8155 C.2       1 <0>         0.0000
      4 C4          1.1990   -3.3128   -1.7418 C.2       1 <0>         0.0000
      5 C5         -0.8288   -0.9142    1.1698 C.2       1 <0>         0.0000
      6 C6          0.3891   -1.2813   -0.5661 C.2       1 <0>         0.0000
      7 C7          0.3039    0.1990   -0.4275 C.2       1 <0>         0.0000
      8 C8          1.0817   -1.9033   -1.5583 C.2       1 <0>         0.0000
      9 C9         -0.8904    1.6309    1.2851 C.3       1 <0>         0.0000
     10 N1         -0.3422   -1.8954    0.4663 N.2       1 <0>         0.0000
     11 N2         -0.5008    0.3522    0.7191 N.am      1 <0>         0.0000
     12 O1          0.7798    1.1109   -1.0933 O.2       1 <0>         0.0000
     13 O2          1.9556   -3.7349   -2.8220 O.3       1 <0>         0.0000
     14 H1          1.0170   -6.6053   -1.5241 H         1 <0>         0.0000
     15 H2          0.0937   -4.3733   -0.1844 H         1 <0>         0.0000
     16 H3          2.4931   -5.5760   -3.6081 H         1 <0>         0.0000
     17 H4         -1.4499   -1.0455    2.0514 H         1 <0>         0.0000
     18 H5          1.5917   -1.2644   -2.2757 H         1 <0>         0.0000
     19 H6         -0.5311    1.7309    2.3141 H         1 <0>         0.0000
     20 H7         -1.9777    1.7551    1.2663 H         1 <0>         0.0000
     21 H8         -0.4331    2.4091    0.6712 H         1 <0>         0.0000
@<TRIPOS>BOND
     1    1    2 1
     2    1    3 2
     3    1   14 1
     4    2    4 2
     5    2   15 1
     6    3   13 1
     7    3   16 1
     8    4    8 1
     9    4   13 1
    10    5   10 2
    11    5   11 1
    12    5   17 1
    13    6    7 1
    14    6    8 2
    15    6   10 1
    16    7   11 am
    17    7   12 2
    18    8   18 1
    19    9   11 1
    20    9   19 1
    21    9   20 1
    22    9   21 1
