@<TRIPOS>MOLECULE
*****
   32    34     0     0     0
SMALL
NO_CHARGES

@<TRIPOS>ATOM
      1 C1          7.4185   -3.5078    5.0813 C.1       1 <0>         0.0000
      2 C2          2.1425   -1.6849   -0.5374 C.ar      1 <0>         0.0000
      3 C3          0.8154   -1.4412   -0.1733 C.ar      1 <0>         0.0000
      4 C4          3.0672   -2.0273    0.4456 C.ar      1 <0>         0.0000
      5 C5          0.4350   -1.5400    1.1666 C.ar      1 <0>         0.0000
      6 C6          6.8694   -4.3151    0.4272 C.2       1 <0>         0.0000
      7 C7          7.2677   -4.7446   -0.8047 C.2       1 <0>         0.0000
      8 C8          9.0821   -4.9397    0.8611 C.2       1 <0>         0.0000
      9 C9          2.6890   -2.1265    1.7980 C.ar      1 <0>         0.0000
     10 C10         7.9150   -4.4215    1.4180 C.2       1 <0>         0.0000
     11 C11         1.3469   -1.8775    2.1774 C.ar      1 <0>         0.0000
     12 C12         3.7428   -2.4945    2.7575 C.2       1 <0>         0.0000
     13 C13         5.6306   -3.1472    3.4543 C.2       1 <0>         0.0000
     14 C14         7.9160   -4.1121    2.8293 C.2       1 <0>         0.0000
     15 C15         6.9927   -3.6064    3.7082 C.2       1 <0>         0.0000
     16 C16         0.8602   -1.9609    3.6034 C.3       1 <0>         0.0000
     17 N1          7.7955   -3.4411    6.1819 N.1       1 <0>         0.0000
     18 N2          4.9870   -2.9401    2.3372 N.2       1 <0>         0.0000
     19 N3          3.6301   -2.4278    4.0722 N.2       1 <0>         0.0000
     20 O1          4.8799   -2.8589    4.5418 O.3       1 <0>         0.0000
     21 S1          8.9225   -5.2870   -0.8086 S.3       1 <0>         0.0000
     22 H1          2.4541   -1.6072   -1.5754 H         1 <0>         0.0000
     23 H2          0.0790   -1.1748   -0.9271 H         1 <0>         0.0000
     24 H3          4.1021   -2.2125    0.1795 H         1 <0>         0.0000
     25 H4         -0.5997   -1.3506    1.4414 H         1 <0>         0.0000
     26 H5          5.8856   -3.9279    0.6487 H         1 <0>         0.0000
     27 H6          6.6898   -4.7753   -1.7196 H         1 <0>         0.0000
     28 H7         10.0180   -5.1317    1.3716 H         1 <0>         0.0000
     29 H8          8.8639   -4.3500    3.3068 H         1 <0>         0.0000
     30 H9          1.1007   -2.9268    4.0568 H         1 <0>         0.0000
     31 H10         1.3368   -1.2041    4.2330 H         1 <0>         0.0000
     32 H11        -0.2224   -1.8156    3.6428 H         1 <0>         0.0000
@<TRIPOS>BOND
     1    1   15 1
     2    1   17 3
     3    2    3 ar
     4    2    4 ar
     5    2   22 1
     6    3    5 ar
     7    3   23 1
     8    4    9 ar
     9    4   24 1
    10    5   11 ar
    11    5   25 1
    12    6    7 2
    13    6   10 1
    14    6   26 1
    15    7   21 1
    16    7   27 1
    17    8   10 2
    18    8   21 1
    19    8   28 1
    20    9   11 ar
    21    9   12 1
    22   10   14 1
    23   11   16 1
    24   12   18 1
    25   12   19 2
    26   13   15 1
    27   13   18 2
    28   13   20 1
    29   14   15 2
    30   14   29 1
    31   16   30 1
    32   16   31 1
    33   16   32 1
    34   19   20 1
