@<TRIPOS>MOLECULE
*****
   71    75     0     0     0
SMALL
NO_CHARGES

@<TRIPOS>ATOM
      1 C1          3.5072   -3.1547   -3.9812 C.ar      1 <0>         0.0000
      2 C2          3.7057   -3.1884   -2.5959 C.ar      1 <0>         0.0000
      3 C3          2.6841   -2.1671   -4.5321 C.ar      1 <0>         0.0000
      4 C4         -3.9407  -16.1442   -1.0616 C.ar      1 <0>         0.0000
      5 C5         -2.8719  -17.0188   -1.2742 C.ar      1 <0>         0.0000
      6 C6          3.0801   -2.2524   -1.7723 C.ar      1 <0>         0.0000
      7 C7          2.0666   -1.2248   -3.7054 C.ar      1 <0>         0.0000
      8 C8          0.7287   -2.4635    1.3663 C.ar      1 <0>         0.0000
      9 C9          0.0127   -2.8823   -0.8893 C.ar      1 <0>         0.0000
     10 C10        -0.8500    0.4235    1.1773 C.ar      1 <0>         0.0000
     11 C11         0.4282   -3.7756    1.7140 C.ar      1 <0>         0.0000
     12 C12        -0.3032   -4.2020   -0.5561 C.ar      1 <0>         0.0000
     13 C13        -1.3135    1.4060    2.0514 C.ar      1 <0>         0.0000
     14 C14        -3.6971  -14.9388   -0.4050 C.ar      1 <0>         0.0000
     15 C15         0.8442    2.4994    1.9161 C.ar      1 <0>         0.0000
     16 C16        -1.6077  -16.6409   -0.8143 C.ar      1 <0>         0.0000
     17 C17         0.5462   -1.9918    0.0519 C.ar      1 <0>         0.0000
     18 C18         2.2416   -1.2585   -2.3105 C.ar      1 <0>         0.0000
     19 C19         0.4463    0.4648    0.6412 C.ar      1 <0>         0.0000
     20 C20         1.3085    1.5186    1.0365 C.ar      1 <0>         0.0000
     21 C21        -0.0863   -4.6585    0.7512 C.ar      1 <0>         0.0000
     22 C22        -0.4602    2.4532    2.4185 C.ar      1 <0>         0.0000
     23 C23        -2.3902  -14.6470    0.0164 C.ar      1 <0>         0.0000
     24 C24         0.8997   -0.5918   -0.3027 C.2       1 <0>         0.0000
     25 C25         1.5863   -0.2572   -1.4303 C.2       1 <0>         0.0000
     26 C26         2.7333    1.5611    0.5332 C.3       1 <0>         0.0000
     27 C27         1.7562    1.2061   -1.7982 C.3       1 <0>         0.0000
     28 C28         2.8456    1.9108   -0.9649 C.3       1 <0>         0.0000
     29 C29        -2.0689  -13.3507    0.7059 C.3       1 <0>         0.0000
     30 C30        -1.0216   -8.2051    0.9581 C.3       1 <0>         0.0000
     31 C31        -1.5694   -9.2905    0.0234 C.3       1 <0>         0.0000
     32 C32        -0.8525   -6.8749    0.2379 C.3       1 <0>         0.0000
     33 C33        -1.7060  -10.6341    0.7358 C.3       1 <0>         0.0000
     34 N1         -1.3608  -15.4847   -0.1839 N.ar      1 <0>         0.0000
     35 O1         -1.1765  -12.0220   -1.5113 O.2       1 <0>         0.0000
     36 O2         -0.8443    3.4561    3.2780 O.3       1 <0>         0.0000
     37 O3         -0.3509   -5.9309    1.1854 O.3       1 <0>         0.0000
     38 S1         -2.2723  -11.9164   -0.4678 S.o       1 <0>         0.0000
     39 H1          3.9913   -3.8862   -4.6232 H         1 <0>         0.0000
     40 H2          4.3505   -3.9457   -2.1568 H         1 <0>         0.0000
     41 H3          2.5208   -2.1311   -5.6065 H         1 <0>         0.0000
     42 H4         -4.9421  -16.3959   -1.4012 H         1 <0>         0.0000
     43 H5         -3.0095  -17.9691   -1.7820 H         1 <0>         0.0000
     44 H6          3.2334   -2.2890   -0.6980 H         1 <0>         0.0000
     45 H7          1.4190   -0.4713   -4.1467 H         1 <0>         0.0000
     46 H8          1.1214   -1.7895    2.1230 H         1 <0>         0.0000
     47 H9         -0.1559   -2.5423   -1.9063 H         1 <0>         0.0000
     48 H10        -1.5092   -0.3940    0.8994 H         1 <0>         0.0000
     49 H11         0.5842   -4.1401    2.7253 H         1 <0>         0.0000
     50 H12        -0.7126   -4.8549   -1.3186 H         1 <0>         0.0000
     51 H13        -2.3276    1.3565    2.4455 H         1 <0>         0.0000
     52 H14        -4.5009  -14.2294   -0.2256 H         1 <0>         0.0000
     53 H15         1.4948    3.3098    2.2341 H         1 <0>         0.0000
     54 H16        -0.7501  -17.2960   -0.9592 H         1 <0>         0.0000
     55 H17         3.3185    2.2721    1.1246 H         1 <0>         0.0000
     56 H18         3.1813    0.5728    0.6867 H         1 <0>         0.0000
     57 H19         2.0027    1.3052   -2.8587 H         1 <0>         0.0000
     58 H20         0.8075    1.7288   -1.6360 H         1 <0>         0.0000
     59 H21         2.7481    2.9934   -1.1106 H         1 <0>         0.0000
     60 H22         3.8429    1.6255   -1.3197 H         1 <0>         0.0000
     61 H23        -2.7432  -13.1539    1.5463 H         1 <0>         0.0000
     62 H24        -1.0292  -13.3577    1.0395 H         1 <0>         0.0000
     63 H25        -1.6917   -8.0609    1.8136 H         1 <0>         0.0000
     64 H26        -0.0497   -8.5117    1.3613 H         1 <0>         0.0000
     65 H27        -0.9024   -9.4203   -0.8356 H         1 <0>         0.0000
     66 H28        -2.5453   -8.9828   -0.3735 H         1 <0>         0.0000
     67 H29        -1.8140   -6.5267   -0.1645 H         1 <0>         0.0000
     68 H30        -0.1489   -6.9765   -0.5994 H         1 <0>         0.0000
     69 H31        -0.7410  -10.9697    1.1300 H         1 <0>         0.0000
     70 H32        -2.4379  -10.5944    1.5507 H         1 <0>         0.0000
     71 H33        -1.7629    3.3017    3.5497 H         1 <0>         0.0000
@<TRIPOS>BOND
     1    1    3 ar
     2    1    2 ar
     3    1   39 1
     4    2    6 ar
     5    2   40 1
     6    3    7 ar
     7    3   41 1
     8    4    5 ar
     9    4   14 ar
    10    4   42 1
    11    5   16 ar
    12    5   43 1
    13    6   18 ar
    14    6   44 1
    15    7   18 ar
    16    7   45 1
    17    8   11 ar
    18    8   17 ar
    19    8   46 1
    20    9   12 ar
    21    9   17 ar
    22    9   47 1
    23   10   13 ar
    24   10   19 ar
    25   10   48 1
    26   11   21 ar
    27   11   49 1
    28   12   21 ar
    29   12   50 1
    30   13   22 ar
    31   13   51 1
    32   14   23 ar
    33   14   52 1
    34   15   20 ar
    35   15   22 ar
    36   15   53 1
    37   16   34 ar
    38   16   54 1
    39   17   24 1
    40   18   25 1
    41   19   20 ar
    42   19   24 1
    43   20   26 1
    44   21   37 1
    45   22   36 1
    46   23   29 1
    47   23   34 ar
    48   24   25 2
    49   25   27 1
    50   26   28 1
    51   26   55 1
    52   26   56 1
    53   27   28 1
    54   27   57 1
    55   27   58 1
    56   28   59 1
    57   28   60 1
    58   29   38 1
    59   29   61 1
    60   29   62 1
    61   30   31 1
    62   30   32 1
    63   30   63 1
    64   30   64 1
    65   31   33 1
    66   31   65 1
    67   31   66 1
    68   32   37 1
    69   32   67 1
    70   32   68 1
    71   33   38 1
    72   33   69 1
    73   33   70 1
    74   35   38 2
    75   36   71 1
