@<TRIPOS>MOLECULE
*****
   38    40     0     0     0
SMALL
NO_CHARGES

@<TRIPOS>ATOM
      1 C1          2.4183    2.0742   -2.3724 C.ar      1 <0>         0.0000
      2 C2          0.3947    2.1793   -3.6881 C.ar      1 <0>         0.0000
      3 C3          2.9515    3.1326   -3.1079 C.ar      1 <0>         0.0000
      4 C4          0.9279    3.2377   -4.4237 C.ar      1 <0>         0.0000
      5 C5         -1.0281    4.1358    0.2621 C.2       1 <0>         0.0000
      6 C6         -2.2838   -3.4645    2.1643 C.2       1 <0>         0.0000
      7 C7         -1.1009    2.6742    1.7506 C.2       1 <0>         0.0000
      8 C8         -2.6506   -2.6824    0.2641 C.2       1 <0>         0.0000
      9 C9          1.1399    1.5975   -2.6625 C.ar      1 <0>         0.0000
     10 C10         2.2064    3.7144   -4.1335 C.ar      1 <0>         0.0000
     11 C11        -1.3563    0.6261    0.2000 C.3       1 <0>         0.0000
     12 C12        -0.3041   -1.6885   -0.1505 C.3       1 <0>         0.0000
     13 C13         1.0471    0.4378   -0.5883 C.3       1 <0>         0.0000
     14 C14        -0.0517   -0.2183    0.2747 C.3       1 <0>         0.0000
     15 N1         -0.9865    3.9752    1.6175 N.2       1 <0>         0.0000
     16 N2         -3.2617   -3.3444    1.2189 N.2       1 <0>         0.0000
     17 N3         -1.1610    3.0160   -0.4518 N.2       1 <0>         0.0000
     18 N4         -1.1060   -2.9184    1.8545 N.2       1 <0>         0.0000
     19 N5         -1.2052    2.0961    0.5239 N.pl3     1 <0>         0.0000
     20 N6         -1.3675   -2.4250    0.6345 N.pl3     1 <0>         0.0000
     21 O1          0.4073   -0.2149    1.6317 O.3       1 <0>         0.0000
     22 O2          0.6166    0.5583   -1.9411 O.3       1 <0>         0.0000
     23 Cl1         2.8646    5.0193   -5.0421 Cl        1 <0>         0.0000
     24 H1          3.0041    1.6253   -1.5752 H         1 <0>         0.0000
     25 H2         -0.6015    1.8121   -3.9190 H         1 <0>         0.0000
     26 H3          3.9496    3.4934   -2.8716 H         1 <0>         0.0000
     27 H4          0.3364    3.6810   -5.2208 H         1 <0>         0.0000
     28 H5         -0.9576    5.0989   -0.2209 H         1 <0>         0.0000
     29 H6         -2.4333   -3.9672    3.1081 H         1 <0>         0.0000
     30 H7         -1.1108    2.1185    2.6776 H         1 <0>         0.0000
     31 H8         -3.0736   -2.3771   -0.6826 H         1 <0>         0.0000
     32 H9         -2.1088    0.1915    0.8717 H         1 <0>         0.0000
     33 H10        -1.7869    0.5680   -0.8089 H         1 <0>         0.0000
     34 H11         0.6350   -2.2542   -0.0861 H         1 <0>         0.0000
     35 H12        -0.6121   -1.7285   -1.2036 H         1 <0>         0.0000
     36 H13         1.2710    1.4514   -0.2408 H         1 <0>         0.0000
     37 H14         1.9637   -0.1612   -0.5760 H         1 <0>         0.0000
     38 H15         1.2161   -0.7462    1.6433 H         1 <0>         0.0000
@<TRIPOS>BOND
     1    1    3 ar
     2    1    9 ar
     3    1   24 1
     4    2    4 ar
     5    2    9 ar
     6    2   25 1
     7    3   10 ar
     8    3   26 1
     9    4   10 ar
    10    4   27 1
    11    5   15 1
    12    5   17 2
    13    5   28 1
    14    6   16 1
    15    6   18 2
    16    6   29 1
    17    7   15 2
    18    7   19 1
    19    7   30 1
    20    8   16 2
    21    8   20 1
    22    8   31 1
    23    9   22 1
    24   10   23 1
    25   11   14 1
    26   11   19 1
    27   11   32 1
    28   11   33 1
    29   12   14 1
    30   12   20 1
    31   12   34 1
    32   12   35 1
    33   13   14 1
    34   13   22 1
    35   13   36 1
    36   13   37 1
    37   14   21 1
    38   17   19 1
    39   18   20 1
    40   21   38 1
