@<TRIPOS>MOLECULE
*****
   54    54     0     0     0
SMALL
NO_CHARGES

@<TRIPOS>ATOM
      1 C1          1.7873   -2.8980   -4.6912 C.ar      1 <0>         0.0000
      2 C2          0.8076   -2.5565   -3.7589 C.ar      1 <0>         0.0000
      3 C3          2.2249   -3.3606   -1.9751 C.ar      1 <0>         0.0000
      4 C4          2.9858   -3.4708   -4.2655 C.ar      1 <0>         0.0000
      5 C5          1.0264   -2.7878   -2.4009 C.ar      1 <0>         0.0000
      6 C6          3.2046   -3.7020   -2.9075 C.ar      1 <0>         0.0000
      7 C7          3.9955   -3.8197   -5.2554 C.2       1 <0>         0.0000
      8 C8          8.9933   -5.1942   -8.8296 C.3       1 <0>         0.0000
      9 C9          9.6957   -5.6254   -4.6786 C.3       1 <0>         0.0000
     10 C10         4.4082   -5.6840   -2.3794 C.3       1 <0>         0.0000
     11 C11        -0.3291   -4.4220    0.3119 C.3       1 <0>         0.0000
     12 C12        -0.9480    0.0007   -1.9567 C.3       1 <0>         0.0000
     13 C13         7.8513   -5.0659   -7.8798 C.3       1 <0>         0.0000
     14 C14         9.1942   -5.8765   -6.0599 C.3       1 <0>         0.0000
     15 C15         6.3375   -3.4216   -6.0508 C.3       1 <0>         0.0000
     16 C16         7.2249   -4.5746   -5.6129 C.3       1 <0>         0.0000
     17 N1          5.2425   -3.1977   -5.1344 N.am      1 <0>         0.0000
     18 N2          0.0162   -2.4360   -1.4398 N.pl3     1 <0>         0.0000
     19 N3          8.3245   -4.7811   -6.5161 N.3       1 <0>         0.0000
     20 O1          3.7312   -4.6199   -6.1688 O.2       1 <0>         0.0000
     21 O2         -1.2616   -4.6023   -2.1186 O.2       1 <0>         0.0000
     22 O3         -2.3353   -2.9903   -0.5101 O.2       1 <0>         0.0000
     23 O4         -0.6376   -0.8334    0.4846 O.2       1 <0>         0.0000
     24 O5          1.4101   -0.3072   -0.8823 O.2       1 <0>         0.0000
     25 O6          4.3685   -4.2616   -2.4720 O.3       1 <0>         0.0000
     26 S1         -1.1491   -3.6272   -1.0506 S.o2      1 <0>         0.0000
     27 S2          0.0720   -0.8579   -0.7805 S.o2      1 <0>         0.0000
     28 H1          1.6046   -2.7129   -5.7469 H         1 <0>         0.0000
     29 H2         -0.1233   -2.1115   -4.1008 H         1 <0>         0.0000
     30 H3          2.3992   -3.5437   -0.9175 H         1 <0>         0.0000
     31 H4          9.6513   -6.0133   -8.5041 H         1 <0>         0.0000
     32 H5          8.6093   -5.4108   -9.8374 H         1 <0>         0.0000
     33 H6          9.5619   -4.2527   -8.8484 H         1 <0>         0.0000
     34 H7          8.8435   -5.5383   -3.9887 H         1 <0>         0.0000
     35 H8         10.3379   -6.4614   -4.3642 H         1 <0>         0.0000
     36 H9         10.2764   -4.6913   -4.6637 H         1 <0>         0.0000
     37 H10         5.3910   -5.9992   -2.0204 H         1 <0>         0.0000
     38 H11         4.2104   -6.1197   -3.3620 H         1 <0>         0.0000
     39 H12         3.6419   -6.0159   -1.6749 H         1 <0>         0.0000
     40 H13        -0.9690   -5.2269    0.6768 H         1 <0>         0.0000
     41 H14         0.6220   -4.8209   -0.0439 H         1 <0>         0.0000
     42 H15        -0.1640   -3.6800    1.0946 H         1 <0>         0.0000
     43 H16        -1.0078    1.0490   -1.6601 H         1 <0>         0.0000
     44 H17        -0.4899   -0.0924   -2.9425 H         1 <0>         0.0000
     45 H18        -1.9391   -0.4556   -1.9506 H         1 <0>         0.0000
     46 H19         7.1985   -4.2452   -8.2120 H         1 <0>         0.0000
     47 H20         7.2824   -6.0073   -7.8732 H         1 <0>         0.0000
     48 H21        10.0519   -5.9624   -6.7432 H         1 <0>         0.0000
     49 H22         8.6226   -6.8163   -6.0690 H         1 <0>         0.0000
     50 H23         5.9045   -3.6039   -7.0394 H         1 <0>         0.0000
     51 H24         6.9179   -2.4945   -6.0902 H         1 <0>         0.0000
     52 H25         7.6532   -4.3698   -4.6269 H         1 <0>         0.0000
     53 H26         6.6627   -5.5124   -5.5592 H         1 <0>         0.0000
     54 H27         5.3840   -2.5047   -4.4068 H         1 <0>         0.0000
@<TRIPOS>BOND
     1    1    2 ar
     2    1    4 ar
     3    1   28 1
     4    2    5 ar
     5    2   29 1
     6    3    5 ar
     7    3    6 ar
     8    3   30 1
     9    4    6 ar
    10    4    7 1
    11    5   18 1
    12    6   25 1
    13    7   17 am
    14    7   20 2
    15    8   13 1
    16    8   31 1
    17    8   32 1
    18    8   33 1
    19    9   14 1
    20    9   34 1
    21    9   35 1
    22    9   36 1
    23   10   25 1
    24   10   37 1
    25   10   38 1
    26   10   39 1
    27   11   26 1
    28   11   40 1
    29   11   41 1
    30   11   42 1
    31   12   27 1
    32   12   43 1
    33   12   44 1
    34   12   45 1
    35   13   19 1
    36   13   46 1
    37   13   47 1
    38   14   19 1
    39   14   48 1
    40   14   49 1
    41   15   16 1
    42   15   17 1
    43   15   50 1
    44   15   51 1
    45   16   19 1
    46   16   52 1
    47   16   53 1
    48   17   54 1
    49   18   26 1
    50   18   27 1
    51   21   26 2
    52   22   26 2
    53   23   27 2
    54   24   27 2
