@<TRIPOS>MOLECULE
*****
   37    38     0     0     0
SMALL
NO_CHARGES

@<TRIPOS>ATOM
      1 C1          1.1552    1.8752    0.9178 C.ar      1 <0>         0.0000
      2 C2          0.5434    3.1040    0.6817 C.ar      1 <0>         0.0000
      3 C3          0.6481    0.6838    0.3594 C.ar      1 <0>         0.0000
      4 C4         -0.4733    0.7468   -0.4961 C.ar      1 <0>         0.0000
      5 C5         -1.0829    2.0022   -0.7080 C.ar      1 <0>         0.0000
      6 C6         -0.5817    3.1664   -0.1263 C.ar      1 <0>         0.0000
      7 C7         -0.1327   -1.7429   -1.0070 C.3       1 <0>         0.0000
      8 C8          1.3748   -0.6174    0.6401 C.3       1 <0>         0.0000
      9 C9         -1.0551   -0.5017   -1.1682 C.3       1 <0>         0.0000
     10 C10         0.5257   -1.8720    0.3721 C.3       1 <0>         0.0000
     11 C11        -1.2198   -0.2797   -2.6928 C.3       1 <0>         0.0000
     12 C12        -2.4556   -0.7900   -0.5810 C.3       1 <0>         0.0000
     13 C13        -3.3544    2.6971   -0.8230 C.3       1 <0>         0.0000
     14 C14         1.3810   -3.1453    0.4275 C.3       1 <0>         0.0000
     15 O1          1.8401   -0.6368    1.9906 O.3       1 <0>         0.0000
     16 O2         -0.4675   -1.9928    1.3903 O.3       1 <0>         0.0000
     17 O3         -2.2068    2.1534   -1.4689 O.3       1 <0>         0.0000
     18 F1         -1.1785    4.3467   -0.3440 F         1 <0>         0.0000
     19 F2          2.3356   -3.0900   -0.5101 F         1 <0>         0.0000
     20 F3          1.9534   -3.2536    1.6331 F         1 <0>         0.0000
     21 F4          0.6099   -4.2178    0.2080 F         1 <0>         0.0000
     22 H1          2.0418    1.8540    1.5477 H         1 <0>         0.0000
     23 H2          0.9454    4.0077    1.1294 H         1 <0>         0.0000
     24 H3         -0.7075   -2.6523   -1.2302 H         1 <0>         0.0000
     25 H4          0.6711   -1.6993   -1.7570 H         1 <0>         0.0000
     26 H5          2.2590   -0.6228   -0.0136 H         1 <0>         0.0000
     27 H6         -1.6309   -1.1788   -3.1284 H         1 <0>         0.0000
     28 H7         -0.2488   -0.0666   -3.1157 H         1 <0>         0.0000
     29 H8         -1.8893    0.5540   -2.8481 H         1 <0>         0.0000
     30 H9         -2.8595   -1.6720   -1.0600 H         1 <0>         0.0000
     31 H10        -3.0948    0.0623   -0.7700 H         1 <0>         0.0000
     32 H11        -2.3597   -0.9551    0.4840 H         1 <0>         0.0000
     33 H12        -4.1780    2.7648   -1.5380 H         1 <0>         0.0000
     34 H13        -3.1167    3.6887   -0.4297 H         1 <0>         0.0000
     35 H14        -3.6432    2.0401    0.0008 H         1 <0>         0.0000
     36 H15         2.2927   -1.4849    2.1112 H         1 <0>         0.0000
     37 H16         0.0092   -2.0702    2.2306 H         1 <0>         0.0000
@<TRIPOS>BOND
     1    1    2 ar
     2    1    3 ar
     3    1   22 1
     4    2    6 ar
     5    2   23 1
     6    3    4 ar
     7    3    8 1
     8    4    5 ar
     9    4    9 1
    10    5    6 ar
    11    5   17 1
    12    6   18 1
    13    7    9 1
    14    7   10 1
    15    7   24 1
    16    7   25 1
    17    8   10 1
    18    8   15 1
    19    8   26 1
    20    9   11 1
    21    9   12 1
    22   10   14 1
    23   10   16 1
    24   11   27 1
    25   11   28 1
    26   11   29 1
    27   12   30 1
    28   12   31 1
    29   12   32 1
    30   13   17 1
    31   13   33 1
    32   13   34 1
    33   13   35 1
    34   14   19 1
    35   14   20 1
    36   14   21 1
    37   15   36 1
    38   16   37 1
