@<TRIPOS>MOLECULE
*****
   21    21     0     0     0
SMALL
NO_CHARGES

@<TRIPOS>ATOM
      1 C1          3.2313    3.7919   -4.2063 C.2       1 <0>         0.0000
      2 C2          3.6754    2.5477   -4.5964 C.2       1 <0>         0.0000
      3 C3          2.6564    3.6515   -2.9191 C.2       1 <0>         0.0000
      4 C4          2.7669    2.3258   -2.5617 C.2       1 <0>         0.0000
      5 C5          2.3234    1.6663   -1.3232 C.2       1 <0>         0.0000
      6 C6          0.9454   -0.0479   -0.2111 C.3       1 <0>         0.0000
      7 C7          0.7920    0.1554   -2.6675 C.3       1 <0>         0.0000
      8 N1          3.3881    1.6644   -3.5887 N.pl3     1 <0>         0.0000
      9 N2          1.3874    0.6315   -1.4208 N.am      1 <0>         0.0000
     10 O1          2.8288    2.0742   -0.2781 O.2       1 <0>         0.0000
     11 O2          2.1023    4.6106   -2.1633 O.3       1 <0>         0.0000
     12 H1          3.3144    4.6994   -4.7879 H         1 <0>         0.0000
     13 H2          4.1692    2.2132   -5.4978 H         1 <0>         0.0000
     14 H3          0.0641    0.4674    0.1983 H         1 <0>         0.0000
     15 H4          0.6830   -1.0890   -0.4505 H         1 <0>         0.0000
     16 H5          1.7556   -0.0358    0.5329 H         1 <0>         0.0000
     17 H6          1.4124   -0.6507   -3.0863 H         1 <0>         0.0000
     18 H7         -0.2199   -0.2268   -2.4679 H         1 <0>         0.0000
     19 H8          0.7352    0.9855   -3.3870 H         1 <0>         0.0000
     20 H9          3.6041    0.6769   -3.6033 H         1 <0>         0.0000
     21 H10         2.1320    5.4791   -2.6112 H         1 <0>         0.0000
@<TRIPOS>BOND
     1    1    2 2
     2    1    3 1
     3    1   12 1
     4    2    8 1
     5    2   13 1
     6    3    4 2
     7    3   11 1
     8    4    5 1
     9    4    8 1
    10    5    9 am
    11    5   10 2
    12    6    9 1
    13    6   14 1
    14    6   15 1
    15    6   16 1
    16    7    9 1
    17    7   17 1
    18    7   18 1
    19    7   19 1
    20    8   20 1
    21   11   21 1
