@<TRIPOS>MOLECULE
*****
   25    25     0     0     0
SMALL
NO_CHARGES

@<TRIPOS>ATOM
      1 C1          5.3147   -2.1623    2.6362 C.ar      1 <0>         0.0000
      2 C2          5.3030    0.0979    2.2248 C.ar      1 <0>         0.0000
      3 C3          3.3633   -1.1750    1.7015 C.ar      1 <0>         0.0000
      4 C4          4.0215   -2.3102    2.1613 C.ar      1 <0>         0.0000
      5 C5          4.0093    0.0560    1.7303 C.ar      1 <0>         0.0000
      6 C6         -0.0644   -1.4567    2.3979 C.3       1 <0>         0.0000
      7 C7          0.3904    0.4614    0.8295 C.3       1 <0>         0.0000
      8 C8          1.7201   -2.0955    0.0851 C.3       1 <0>         0.0000
      9 C9          0.9818   -0.4934    1.8562 C.3       1 <0>         0.0000
     10 N1          5.9748   -0.9833    2.6800 N.ar      1 <0>         0.0000
     11 N2          2.0725   -1.2697    1.2178 N.pl3     1 <0>         0.0000
     12 F1          3.4332   -3.5127    2.1496 F         1 <0>         0.0000
     13 F2          3.4091    1.1713    1.2966 F         1 <0>         0.0000
     14 H1          5.8712   -3.0171    3.0060 H         1 <0>         0.0000
     15 H2          5.8502    1.0337    2.2686 H         1 <0>         0.0000
     16 H3         -0.5111   -2.0429    1.5882 H         1 <0>         0.0000
     17 H4          0.3706   -2.1530    3.1236 H         1 <0>         0.0000
     18 H5         -0.8681   -0.9122    2.9056 H         1 <0>         0.0000
     19 H6         -0.0489   -0.0921   -0.0076 H         1 <0>         0.0000
     20 H7          1.1606    1.1282    0.4281 H         1 <0>         0.0000
     21 H8         -0.4017    1.0794    1.2670 H         1 <0>         0.0000
     22 H9          0.6491   -2.0163   -0.1188 H         1 <0>         0.0000
     23 H10         1.9629   -3.1417    0.2899 H         1 <0>         0.0000
     24 H11         2.2720   -1.7749   -0.8026 H         1 <0>         0.0000
     25 H12         1.4144    0.0814    2.6823 H         1 <0>         0.0000
@<TRIPOS>BOND
     1    1    4 ar
     2    1   10 ar
     3    1   14 1
     4    2    5 ar
     5    2   10 ar
     6    2   15 1
     7    3    4 ar
     8    3    5 ar
     9    3   11 1
    10    4   12 1
    11    5   13 1
    12    6    9 1
    13    6   16 1
    14    6   17 1
    15    6   18 1
    16    7    9 1
    17    7   19 1
    18    7   20 1
    19    7   21 1
    20    8   11 1
    21    8   22 1
    22    8   23 1
    23    8   24 1
    24    9   11 1
    25    9   25 1
