@<TRIPOS>MOLECULE
*****
   39    39     0     0     0
SMALL
NO_CHARGES

@<TRIPOS>ATOM
      1 C1          1.5118    1.4405   -0.4448 C.2       1 <0>         0.0000
      2 C2          2.8543    3.0998   -0.9861 C.2       1 <0>         0.0000
      3 C3          0.8443    4.5122   -1.8907 C.2       1 <0>         0.0000
      4 C4          0.7815    0.1954    1.5739 C.3       1 <0>         0.0000
      5 C5         -0.1281   -0.4174   -0.6878 C.3       1 <0>         0.0000
      6 C6          2.5030    7.6836   -3.0450 C.3       1 <0>         0.0000
      7 C7          0.6139    6.4672   -4.1586 C.3       1 <0>         0.0000
      8 C8          0.2942    7.4707   -1.8828 C.3       1 <0>         0.0000
      9 C9          4.4817    0.3443   -1.0683 C.3       1 <0>         0.0000
     10 C10         1.0846    0.1103    0.0789 C.3       1 <0>         0.0000
     11 C11         1.2896    6.7745   -2.8182 C.3       1 <0>         0.0000
     12 N1          0.6890    2.3149   -0.9466 N.2       1 <0>         0.0000
     13 N2          2.7955    1.8367   -0.4382 N.am      1 <0>         0.0000
     14 N3          1.4805    3.3953   -1.3106 N.am      1 <0>         0.0000
     15 N4          1.7262    5.5374   -2.2151 N.am      1 <0>         0.0000
     16 N5          3.8802    1.1446    0.0181 N.3       1 <0>         0.0000
     17 O1          3.8329    3.8105   -1.1610 O.2       1 <0>         0.0000
     18 O2         -0.3712    4.5697   -2.0872 O.2       1 <0>         0.0000
     19 H1         -0.0399    0.8917    1.7773 H         1 <0>         0.0000
     20 H2          1.6594    0.5394    2.1321 H         1 <0>         0.0000
     21 H3          0.4977   -0.7849    1.9715 H         1 <0>         0.0000
     22 H4         -0.9852    0.2559   -0.5751 H         1 <0>         0.0000
     23 H5         -0.4299   -1.4083   -0.3297 H         1 <0>         0.0000
     24 H6          0.0924   -0.4995   -1.7575 H         1 <0>         0.0000
     25 H7          3.0046    7.9183   -2.0989 H         1 <0>         0.0000
     26 H8          3.2373    7.2109   -3.7067 H         1 <0>         0.0000
     27 H9          2.2039    8.6360   -3.4980 H         1 <0>         0.0000
     28 H10        -0.2583    5.8174   -4.0219 H         1 <0>         0.0000
     29 H11         1.3006    5.9486   -4.8378 H         1 <0>         0.0000
     30 H12         0.2769    7.3840   -4.6551 H         1 <0>         0.0000
     31 H13        -0.5853    6.8415   -1.7030 H         1 <0>         0.0000
     32 H14         0.7503    7.6984   -0.9131 H         1 <0>         0.0000
     33 H15        -0.0640    8.4120   -2.3156 H         1 <0>         0.0000
     34 H16         3.7255   -0.3381   -1.4835 H         1 <0>         0.0000
     35 H17         4.8441    1.0157   -1.8607 H         1 <0>         0.0000
     36 H18         5.3238   -0.2405   -0.6696 H         1 <0>         0.0000
     37 H19         1.9114   -0.5978   -0.0664 H         1 <0>         0.0000
     38 H20         2.7128    5.4113   -2.0208 H         1 <0>         0.0000
     39 H21         4.6296    1.7721    0.3781 H         1 <0>         0.0000
@<TRIPOS>BOND
     1    1   10 1
     2    1   12 2
     3    1   13 1
     4    2   13 am
     5    2   14 am
     6    2   17 2
     7    3   14 am
     8    3   15 am
     9    3   18 2
    10    4   10 1
    11    4   19 1
    12    4   20 1
    13    4   21 1
    14    5   10 1
    15    5   22 1
    16    5   23 1
    17    5   24 1
    18    6   11 1
    19    6   25 1
    20    6   26 1
    21    6   27 1
    22    7   11 1
    23    7   28 1
    24    7   29 1
    25    7   30 1
    26    8   11 1
    27    8   31 1
    28    8   32 1
    29    8   33 1
    30    9   16 1
    31    9   34 1
    32    9   35 1
    33    9   36 1
    34   10   37 1
    35   11   15 1
    36   12   14 1
    37   13   16 1
    38   15   38 1
    39   16   39 1
