@<TRIPOS>MOLECULE
*****
   27    28     0     0     0
SMALL
NO_CHARGES

@<TRIPOS>ATOM
      1 C1         -2.3544    1.2697    1.0839 C.2       1 <0>         0.0000
      2 C2         -3.6263    4.3808    2.9114 C.3       1 <0>         0.0000
      3 C3         -2.4625    3.6524    3.5175 C.3       1 <0>         0.0000
      4 C4         -0.5307    0.0481   -1.9469 C.3       1 <0>         0.0000
      5 C5          1.3483    0.9972   -0.9061 C.3       1 <0>         0.0000
      6 C6         -3.4200    2.9203    2.6182 C.3       1 <0>         0.0000
      7 C7          0.9724   -0.0447   -1.9296 C.3       1 <0>         0.0000
      8 C8         -2.0674    1.0633   -0.3814 C.3       1 <0>         0.0000
      9 N1         -0.8509    0.2752   -0.5351 N.3       1 <0>         0.0000
     10 N2         -3.0177    2.4681    1.3058 N.am      1 <0>         0.0000
     11 O1         -2.0353    0.4649    1.9550 O.2       1 <0>         0.0000
     12 O2          0.2280    1.1200   -0.0207 O.3       1 <0>         0.0000
     13 O3          1.3624   -1.3403   -1.4873 O.3       1 <0>         0.0000
     14 H1         -4.4462    4.6535    3.5642 H         1 <0>         0.0000
     15 H2         -3.4165    5.0997    2.1288 H         1 <0>         0.0000
     16 H3         -1.4736    3.8826    3.1405 H         1 <0>         0.0000
     17 H4         -2.5002    3.4348    4.5778 H         1 <0>         0.0000
     18 H5         -0.8426    0.8914   -2.5757 H         1 <0>         0.0000
     19 H6         -1.0094   -0.8673   -2.3077 H         1 <0>         0.0000
     20 H7          2.2342    0.7319   -0.3220 H         1 <0>         0.0000
     21 H8          1.4996    1.9760   -1.3726 H         1 <0>         0.0000
     22 H9         -4.1025    2.2265    3.0974 H         1 <0>         0.0000
     23 H10         1.4291    0.1327   -2.9073 H         1 <0>         0.0000
     24 H11        -2.9018    0.5325   -0.8491 H         1 <0>         0.0000
     25 H12        -1.9328    2.0312   -0.8729 H         1 <0>         0.0000
     26 H13        -3.2310    3.0570    0.5060 H         1 <0>         0.0000
     27 H14         2.3325   -1.3551   -1.4916 H         1 <0>         0.0000
@<TRIPOS>BOND
     1    1    8 1
     2    1   10 am
     3    1   11 2
     4    2    3 1
     5    2    6 1
     6    2   14 1
     7    2   15 1
     8    3    6 1
     9    3   16 1
    10    3   17 1
    11    4    7 1
    12    4    9 1
    13    4   18 1
    14    4   19 1
    15    5    7 1
    16    5   12 1
    17    5   20 1
    18    5   21 1
    19    6   10 1
    20    6   22 1
    21    7   13 1
    22    7   23 1
    23    8    9 1
    24    8   24 1
    25    8   25 1
    26    9   12 1
    27   10   26 1
    28   13   27 1
