@<TRIPOS>MOLECULE
*****
   22    22     0     0     0
SMALL
NO_CHARGES

@<TRIPOS>ATOM
      1 C1          3.4272   -2.4904    2.1008 C.2       1 <0>         0.0000
      2 C2          2.1008   -2.2606    1.6594 C.2       1 <0>         0.0000
      3 C3          4.2536   -1.6705    1.3645 C.2       1 <0>         0.0000
      4 C4          2.1570   -1.3074    0.6667 C.2       1 <0>         0.0000
      5 C5         -0.7588   -1.1586   -1.9276 C.3       1 <0>         0.0000
      6 C6          1.0539   -0.6741   -0.1673 C.3       1 <0>         0.0000
      7 C7          0.3272   -1.7263   -1.0252 C.3       1 <0>         0.0000
      8 N1          3.4706   -0.9562    0.4957 N.pl3     1 <0>         0.0000
      9 N2          0.1187    0.0784    0.6751 N.3       1 <0>         0.0000
     10 O1         -1.3322   -2.2105   -2.6978 O.3       1 <0>         0.0000
     11 F1          1.2188   -2.4055   -1.7933 F         1 <0>         0.0000
     12 F2         -0.2488   -2.6440   -0.1987 F         1 <0>         0.0000
     13 H1          3.7468   -3.1784    2.8708 H         1 <0>         0.0000
     14 H2          1.2042   -2.7403    2.0273 H         1 <0>         0.0000
     15 H3          5.3256   -1.5333    1.3814 H         1 <0>         0.0000
     16 H4         -0.3562   -0.4277   -2.6336 H         1 <0>         0.0000
     17 H5         -1.5596   -0.6936   -1.3449 H         1 <0>         0.0000
     18 H6          1.5220    0.0455   -0.8517 H         1 <0>         0.0000
     19 H7          3.8127   -0.2759   -0.1692 H         1 <0>         0.0000
     20 H8         -0.7873    0.2632    0.3101 H         1 <0>         0.0000
     21 H9          0.4859    0.5420    1.4742 H         1 <0>         0.0000
     22 H10        -2.0152   -1.8055   -3.2550 H         1 <0>         0.0000
@<TRIPOS>BOND
     1    1    2 1
     2    1    3 2
     3    1   13 1
     4    2    4 2
     5    2   14 1
     6    3    8 1
     7    3   15 1
     8    4    6 1
     9    4    8 1
    10    5    7 1
    11    5   10 1
    12    5   16 1
    13    5   17 1
    14    6    7 1
    15    6    9 1
    16    6   18 1
    17    7   11 1
    18    7   12 1
    19    8   19 1
    20    9   20 1
    21    9   21 1
    22   10   22 1
