@<TRIPOS>MOLECULE
*****
   22    23     0     0     0
SMALL
NO_CHARGES

@<TRIPOS>ATOM
      1 C1         -0.1243   -2.8177    1.0825 C.2       1 <0>         0.0000
      2 C2         -1.2186   -1.3683    3.6401 C.2       1 <0>         0.0000
      3 C3          0.0911   -0.4830   -1.4320 C.3       1 <0>         0.0000
      4 C4         -0.2907   -0.5616    6.8514 C.3       1 <0>         0.0000
      5 N1          1.0073   -2.1734    1.4859 N.2       1 <0>         0.0000
      6 N2         -0.6600   -2.3283   -0.0386 N.2       1 <0>         0.0000
      7 N3         -1.2346   -0.0094    3.5325 N.2       1 <0>         0.0000
      8 N4         -0.8755   -1.8152    4.8508 N.2       1 <0>         0.0000
      9 N5          1.2235   -1.2186    0.5897 N.2       1 <0>         0.0000
     10 N6         -0.8864    0.4559    4.7258 N.2       1 <0>         0.0000
     11 N7         -0.7109   -3.8978    1.7416 N.2       1 <0>         0.0000
     12 N8         -1.5424   -3.4899    2.5832 N.2       1 <0>         0.0000
     13 N9          0.2183   -1.3468   -0.2876 N.pl3     1 <0>         0.0000
     14 N10        -0.6843   -0.6412    5.4687 N.pl3     1 <0>         0.0000
     15 N11        -1.5461   -2.1482    2.5229 N.pl3     1 <0>         0.0000
     16 H1         -0.5154    0.3780   -1.1390 H         1 <0>         0.0000
     17 H2          1.0841   -0.1587   -1.7556 H         1 <0>         0.0000
     18 H3         -0.3898   -1.0312   -2.2469 H         1 <0>         0.0000
     19 H4          0.8017   -0.5565    6.8914 H         1 <0>         0.0000
     20 H5         -0.6937    0.3542    7.2926 H         1 <0>         0.0000
     21 H6         -0.6900   -1.4249    7.3911 H         1 <0>         0.0000
     22 H7         -1.7897   -1.6919    1.6524 H         1 <0>         0.0000
@<TRIPOS>BOND
     1    1    5 1
     2    1    6 2
     3    1   11 1
     4    2    7 1
     5    2    8 2
     6    2   15 1
     7    3   13 1
     8    3   16 1
     9    3   17 1
    10    3   18 1
    11    4   14 1
    12    4   19 1
    13    4   20 1
    14    4   21 1
    15    5    9 2
    16    6   13 1
    17    7   10 2
    18    8   14 1
    19    9   13 1
    20   10   14 1
    21   11   12 2
    22   12   15 1
    23   15   22 1
