@<TRIPOS>MOLECULE
*****
   51    54     0     0     0
SMALL
NO_CHARGES

@<TRIPOS>ATOM
      1 C1         -0.3248    1.4906   -4.7227 C.1       1 <0>         0.0000
      2 C2         -0.4251    3.9237   -4.6539 C.ar      1 <0>         0.0000
      3 C3         -0.4062    2.7090   -3.9777 C.ar      1 <0>         0.0000
      4 C4         -0.5041    5.1117   -3.9357 C.ar      1 <0>         0.0000
      5 C5         -0.5616    5.0314   -2.5537 C.ar      1 <0>         0.0000
      6 C6         -0.4679    2.7362   -2.5938 C.ar      1 <0>         0.0000
      7 C7          0.1223    0.2890    0.9503 C.2       1 <0>         0.0000
      8 C8          0.7442   -2.5307    0.3918 C.3       1 <0>         0.0000
      9 C9          1.8012   -0.9752    4.8375 C.3       1 <0>         0.0000
     10 C10         1.0525    0.0979    5.5775 C.3       1 <0>         0.0000
     11 C11         1.2228   -1.4374   -0.5450 C.3       1 <0>         0.0000
     12 C12        -1.1165   -0.5569   -1.0576 C.3       1 <0>         0.0000
     13 C13         0.6996   -2.0077    1.8135 C.3       1 <0>         0.0000
     14 C14        -1.6479    0.7860   -1.5583 C.3       1 <0>         0.0000
     15 C15         0.7711    0.8794   -1.4466 C.3       1 <0>         0.0000
     16 C16         1.0510    0.0807    4.0740 C.3       1 <0>         0.0000
     17 C17         0.2799   -0.2336   -0.4937 C.3       1 <0>         0.0000
     18 C18        -0.5247    6.4166   -4.6541 C.3       1 <0>         0.0000
     19 C19        -0.6475    6.2751   -1.7308 C.3       1 <0>         0.0000
     20 C20        -0.1905   -0.2723    3.3279 C.3       1 <0>         0.0000
     21 N1         -0.2588    0.5021   -5.3271 N.1       1 <0>         0.0000
     22 N2         -0.5455    3.8702   -1.8617 N.ar      1 <0>         0.0000
     23 N3         -0.4500    1.5390   -1.9086 N.pl3     1 <0>         0.0000
     24 N4          0.1142   -0.6763    1.9614 N.am      1 <0>         0.0000
     25 O1         -0.0815    1.4880    1.1635 O.2       1 <0>         0.0000
     26 H1         -0.3785    3.9519   -5.7406 H         1 <0>         0.0000
     27 H2         -0.2460   -2.8924    0.0922 H         1 <0>         0.0000
     28 H3          1.4217   -3.3905    0.3376 H         1 <0>         0.0000
     29 H4          2.8831   -0.9252    4.8354 H         1 <0>         0.0000
     30 H5          1.3986   -1.9803    4.8651 H         1 <0>         0.0000
     31 H6          0.1484   -0.1881    6.1006 H         1 <0>         0.0000
     32 H7          1.6324    0.8676    6.0719 H         1 <0>         0.0000
     33 H8          2.2378   -1.1306   -0.2604 H         1 <0>         0.0000
     34 H9          1.2871   -1.8380   -1.5641 H         1 <0>         0.0000
     35 H10        -1.7953   -0.9916   -0.3162 H         1 <0>         0.0000
     36 H11        -1.0426   -1.2535   -1.9021 H         1 <0>         0.0000
     37 H12         0.1396   -2.7091    2.4422 H         1 <0>         0.0000
     38 H13         1.7196   -1.9450    2.2123 H         1 <0>         0.0000
     39 H14        -2.3117    0.6448   -2.4181 H         1 <0>         0.0000
     40 H15        -2.2008    1.3093   -0.7703 H         1 <0>         0.0000
     41 H16         1.4394    1.5886   -0.9449 H         1 <0>         0.0000
     42 H17         1.2987    0.4619   -2.3127 H         1 <0>         0.0000
     43 H18         1.6313    0.8391    3.5623 H         1 <0>         0.0000
     44 H19        -1.5565    6.7116   -4.8841 H         1 <0>         0.0000
     45 H20        -0.0628    7.2115   -4.0532 H         1 <0>         0.0000
     46 H21         0.0388    6.3640   -5.5955 H         1 <0>         0.0000
     47 H22        -1.6958    6.5501   -1.5668 H         1 <0>         0.0000
     48 H23        -0.1648    6.1388   -0.7553 H         1 <0>         0.0000
     49 H24        -0.1392    7.1125   -2.2245 H         1 <0>         0.0000
     50 H25        -0.8660    0.5870    3.2792 H         1 <0>         0.0000
     51 H26        -0.7115   -1.1031    3.8127 H         1 <0>         0.0000
@<TRIPOS>BOND
     1    1    3 1
     2    1   21 3
     3    2    3 ar
     4    2    4 ar
     5    2   26 1
     6    3    6 ar
     7    4    5 ar
     8    4   18 1
     9    5   19 1
    10    5   22 ar
    11    6   22 ar
    12    6   23 1
    13    7   17 1
    14    7   24 am
    15    7   25 2
    16    8   11 1
    17    8   13 1
    18    8   27 1
    19    8   28 1
    20    9   10 1
    21    9   16 1
    22    9   29 1
    23    9   30 1
    24   10   16 1
    25   10   31 1
    26   10   32 1
    27   11   17 1
    28   11   33 1
    29   11   34 1
    30   12   14 1
    31   12   17 1
    32   12   35 1
    33   12   36 1
    34   13   24 1
    35   13   37 1
    36   13   38 1
    37   14   23 1
    38   14   39 1
    39   14   40 1
    40   15   17 1
    41   15   23 1
    42   15   41 1
    43   15   42 1
    44   16   20 1
    45   16   43 1
    46   18   44 1
    47   18   45 1
    48   18   46 1
    49   19   47 1
    50   19   48 1
    51   19   49 1
    52   20   24 1
    53   20   50 1
    54   20   51 1
