@<TRIPOS>MOLECULE
*****
   25    26     0     0     0
SMALL
NO_CHARGES

@<TRIPOS>ATOM
      1 C1         -0.2443    1.2008    2.9716 C.ar      1 <0>         0.0000
      2 C2         -0.7211    1.4113    4.2553 C.ar      1 <0>         0.0000
      3 C3         -2.4980   -0.0068    3.9241 C.ar      1 <0>         0.0000
      4 C4         -0.9549    0.3357    2.1470 C.ar      1 <0>         0.0000
      5 C5         -2.1045   -0.2836    2.6247 C.ar      1 <0>         0.0000
      6 C6         -0.4594    0.0986    0.7701 C.2       1 <0>         0.0000
      7 C7         -0.5444    0.9409   -1.4528 C.3       1 <0>         0.0000
      8 C8          0.8316    0.3328   -1.4923 C.3       1 <0>         0.0000
      9 N1         -1.8337    0.8278    4.7546 N.ar      1 <0>         0.0000
     10 N2          0.3760   -0.8510    0.4794 N.2       1 <0>         0.0000
     11 N3         -2.3012   -2.8722    2.0204 N.pl3     1 <0>         0.0000
     12 O1         -4.4108   -1.3976    2.1628 O.2       1 <0>         0.0000
     13 O2         -2.8086   -1.0755    0.2453 O.2       1 <0>         0.0000
     14 O3         -0.9811    1.0109   -0.0898 O.3       1 <0>         0.0000
     15 O4          0.7235   -0.9482   -0.8832 O.3       1 <0>         0.0000
     16 S1         -3.0480   -1.3808    1.6492 S.o2      1 <0>         0.0000
     17 H1          0.6565    1.7009    2.6316 H         1 <0>         0.0000
     18 H2         -0.2032    2.0770    4.9379 H         1 <0>         0.0000
     19 H3         -3.3863   -0.4594    4.3540 H         1 <0>         0.0000
     20 H4         -0.5538    1.9588   -1.8568 H         1 <0>         0.0000
     21 H5         -1.2591    0.3318   -2.0137 H         1 <0>         0.0000
     22 H6          1.2089    0.2182   -2.5151 H         1 <0>         0.0000
     23 H7          1.5449    0.9336   -0.9212 H         1 <0>         0.0000
     24 H8         -2.8202   -3.5390    2.6047 H         1 <0>         0.0000
     25 H9         -1.7250   -3.3166    1.2952 H         1 <0>         0.0000
@<TRIPOS>BOND
     1    1    2 ar
     2    1    4 ar
     3    1   17 1
     4    2    9 ar
     5    2   18 1
     6    3    5 ar
     7    3    9 ar
     8    3   19 1
     9    4    5 ar
    10    4    6 1
    11    5   16 1
    12    6   10 2
    13    6   14 1
    14    7    8 1
    15    7   14 1
    16    7   20 1
    17    7   21 1
    18    8   15 1
    19    8   22 1
    20    8   23 1
    21   10   15 1
    22   11   16 1
    23   11   24 1
    24   11   25 1
    25   12   16 2
    26   13   16 2
