@<TRIPOS>MOLECULE
*****
   19    19     0     0     0
SMALL
NO_CHARGES

@<TRIPOS>ATOM
      1 C1         -1.6070   -3.0273    4.7740 C.2       1 <0>         0.0000
      2 C2         -2.2730   -1.8258    4.8330 C.2       1 <0>         0.0000
      3 C3         -0.1168   -1.5359    4.4816 C.2       1 <0>         0.0000
      4 C4          1.7774   -1.0036    1.8500 C.2       1 <0>         0.0000
      5 C5          1.7707   -0.2785    0.5452 C.3       1 <0>         0.0000
      6 C6          1.1637   -0.7871    4.2498 C.3       1 <0>         0.0000
      7 N1         -0.2651   -2.8399    4.5553 N.2       1 <0>         0.0000
      8 N2         -1.3052   -0.8797    4.6445 N.pl3     1 <0>         0.0000
      9 N3          1.2543   -0.2751    2.9012 N.am      1 <0>         0.0000
     10 O1          2.2228   -2.1439    1.9052 O.2       1 <0>         0.0000
     11 H1         -2.0253   -4.0175    4.8793 H         1 <0>         0.0000
     12 H2         -3.3101   -1.5653    4.9860 H         1 <0>         0.0000
     13 H3          2.6947    0.2986    0.3801 H         1 <0>         0.0000
     14 H4          1.6968   -0.9624   -0.3155 H         1 <0>         0.0000
     15 H5          0.9500    0.4444    0.4120 H         1 <0>         0.0000
     16 H6          1.2454    0.0607    4.9387 H         1 <0>         0.0000
     17 H7          2.0323   -1.4313    4.4224 H         1 <0>         0.0000
     18 H8         -1.4446    0.1220    4.6259 H         1 <0>         0.0000
     19 H9          0.9174    0.6652    2.7175 H         1 <0>         0.0000
@<TRIPOS>BOND
     1    1    2 2
     2    1    7 1
     3    1   11 1
     4    2    8 1
     5    2   12 1
     6    3    6 1
     7    3    7 2
     8    3    8 1
     9    4    5 1
    10    4    9 am
    11    4   10 2
    12    5   13 1
    13    5   14 1
    14    5   15 1
    15    6    9 1
    16    6   16 1
    17    6   17 1
    18    8   18 1
    19    9   19 1
