@<TRIPOS>MOLECULE
*****
   42    43     0     0     0
SMALL
NO_CHARGES

@<TRIPOS>ATOM
      1 C1          5.4657   -0.0435    5.5555 C.ar      1 <0>         0.0000
      2 C2          5.2255    0.6681    4.3802 C.ar      1 <0>         0.0000
      3 C3          3.2674   -1.0343    5.4049 C.ar      1 <0>         0.0000
      4 C4          4.4866   -0.8947    6.0679 C.ar      1 <0>         0.0000
      5 C5          4.0063    0.5286    3.7171 C.ar      1 <0>         0.0000
      6 C6          3.0272   -0.3226    4.2295 C.ar      1 <0>         0.0000
      7 C7         -0.8784   -1.4691    2.8500 C.3       1 <0>         0.0000
      8 C8         -0.1899   -1.2105    1.5097 C.3       1 <0>         0.0000
      9 C9          0.1438   -2.1992    3.7176 C.3       1 <0>         0.0000
     10 C10         1.2318   -1.7537    1.6468 C.3       1 <0>         0.0000
     11 C11         1.4885   -1.7765    3.1457 C.3       1 <0>         0.0000
     12 C12         3.7256   -1.3159    8.4456 C.3       1 <0>         0.0000
     13 C13         4.8366    2.0771    2.1144 C.3       1 <0>         0.0000
     14 C14         4.7639   -3.1915    7.0353 C.3       1 <0>         0.0000
     15 C15         4.7443   -1.6576    7.3232 C.3       1 <0>         0.0000
     16 N1          4.9721   -4.0285    8.2157 N.3       1 <0>         0.0000
     17 O1          6.0432   -1.3267    7.8719 O.3       1 <0>         0.0000
     18 O2          1.8253   -0.4673    3.5876 O.3       1 <0>         0.0000
     19 O3          3.7841    1.2293    2.5701 O.3       1 <0>         0.0000
     20 H1          6.4191    0.0702    6.0644 H         1 <0>         0.0000
     21 H2          5.9924    1.3298    3.9868 H         1 <0>         0.0000
     22 H3          2.5027   -1.6977    5.8018 H         1 <0>         0.0000
     23 H4         -1.1584   -0.5154    3.3125 H         1 <0>         0.0000
     24 H5         -1.7946   -2.0564    2.7318 H         1 <0>         0.0000
     25 H6         -0.7182   -1.6936    0.6814 H         1 <0>         0.0000
     26 H7         -0.1721   -0.1343    1.3025 H         1 <0>         0.0000
     27 H8          0.0248   -1.9373    4.7733 H         1 <0>         0.0000
     28 H9          0.0114   -3.2819    3.6074 H         1 <0>         0.0000
     29 H10         1.2728   -2.7722    1.2430 H         1 <0>         0.0000
     30 H11         1.9465   -1.1315    1.0995 H         1 <0>         0.0000
     31 H12         2.3001   -2.4571    3.4184 H         1 <0>         0.0000
     32 H13         3.9101   -1.8738    9.3710 H         1 <0>         0.0000
     33 H14         2.7131   -1.5895    8.1246 H         1 <0>         0.0000
     34 H15         3.7289   -0.2491    8.6905 H         1 <0>         0.0000
     35 H16         4.5298    2.5765    1.1922 H         1 <0>         0.0000
     36 H17         5.7350    1.4807    1.9369 H         1 <0>         0.0000
     37 H18         5.0453    2.8276    2.8805 H         1 <0>         0.0000
     38 H19         5.5542   -3.4242    6.3124 H         1 <0>         0.0000
     39 H20         3.8094   -3.4838    6.5798 H         1 <0>         0.0000
     40 H21         4.9246   -4.9783    7.9334 H         1 <0>         0.0000
     41 H22         5.8662   -3.8170    8.5900 H         1 <0>         0.0000
     42 H23         6.1235   -1.8591    8.6708 H         1 <0>         0.0000
@<TRIPOS>BOND
     1    1    2 ar
     2    1    4 ar
     3    1   20 1
     4    2    5 ar
     5    2   21 1
     6    3    4 ar
     7    3    6 ar
     8    3   22 1
     9    4   15 1
    10    5    6 ar
    11    5   19 1
    12    6   18 1
    13    7    8 1
    14    7    9 1
    15    7   23 1
    16    7   24 1
    17    8   10 1
    18    8   25 1
    19    8   26 1
    20    9   11 1
    21    9   27 1
    22    9   28 1
    23   10   11 1
    24   10   29 1
    25   10   30 1
    26   11   18 1
    27   11   31 1
    28   12   15 1
    29   12   32 1
    30   12   33 1
    31   12   34 1
    32   13   19 1
    33   13   35 1
    34   13   36 1
    35   13   37 1
    36   14   15 1
    37   14   16 1
    38   14   38 1
    39   14   39 1
    40   15   17 1
    41   16   40 1
    42   16   41 1
    43   17   42 1
