@<TRIPOS>MOLECULE
*****
   46    48     0     0     0
SMALL
NO_CHARGES

@<TRIPOS>ATOM
      1 C1          2.3284    5.1036   -1.9694 C.ar      1 <0>         0.0000
      2 C2          3.4796    4.3161   -1.9646 C.ar      1 <0>         0.0000
      3 C3          1.0785    4.5108   -2.1480 C.ar      1 <0>         0.0000
      4 C4          3.3809    2.9356   -2.1385 C.ar      1 <0>         0.0000
      5 C5          0.9798    3.1303   -2.3219 C.ar      1 <0>         0.0000
      6 C6          2.1310    2.3427   -2.3172 C.ar      1 <0>         0.0000
      7 C7          0.1768   -0.5205    3.2153 C.2       1 <0>         0.0000
      8 C8         -0.4651   -0.8513    1.1549 C.2       1 <0>         0.0000
      9 C9         -0.3428    2.5473   -2.5064 C.2       1 <0>         0.0000
     10 C10         1.6315    0.3594    0.2214 C.2       1 <0>         0.0000
     11 C11        -3.3663    2.5402   -1.7214 C.3       1 <0>         0.0000
     12 C12        -2.9348    1.4554   -0.0244 C.3       1 <0>         0.0000
     13 C13        -2.2101    1.6078   -1.3610 C.3       1 <0>         0.0000
     14 C14        -0.8368    0.4551    5.2467 C.3       1 <0>         0.0000
     15 C15        -1.9989   -1.7569    2.9400 C.3       1 <0>         0.0000
     16 C16         0.1472   -0.5620    4.7064 C.3       1 <0>         0.0000
     17 N1          1.1322    0.0378    2.5340 N.2       1 <0>         0.0000
     18 N2         -0.8084   -1.0693    2.4766 N.am      1 <0>         0.0000
     19 N3          0.7786   -0.1411    1.2145 N.am      1 <0>         0.0000
     20 N4          1.1961    0.1280   -1.1248 N.am      1 <0>         0.0000
     21 O1         -1.0799   -1.1867    0.1525 O.2       1 <0>         0.0000
     22 O2         -0.8884    2.3893   -3.6048 O.2       1 <0>         0.0000
     23 O3          2.6794    0.9516    0.4731 O.2       1 <0>         0.0000
     24 O4          3.4068    0.0933   -2.4560 O.2       1 <0>         0.0000
     25 O5          1.2294    0.3183   -3.7002 O.2       1 <0>         0.0000
     26 O6         -4.0679    2.2178   -0.4989 O.3       1 <0>         0.0000
     27 O7         -0.9055    2.1951   -1.3111 O.3       1 <0>         0.0000
     28 S1          2.0469    0.5908   -2.5339 S.o2      1 <0>         0.0000
     29 H1          2.4056    6.1787   -1.8346 H         1 <0>         0.0000
     30 H2          4.4526    4.7782   -1.8252 H         1 <0>         0.0000
     31 H3          0.1892    5.1362   -2.1500 H         1 <0>         0.0000
     32 H4          4.2854    2.3331   -2.1324 H         1 <0>         0.0000
     33 H5         -3.1216    3.6056   -1.7705 H         1 <0>         0.0000
     34 H6         -3.9396    2.2511   -2.6066 H         1 <0>         0.0000
     35 H7         -3.2163    0.4320    0.2392 H         1 <0>         0.0000
     36 H8         -2.4599    1.9410    0.8335 H         1 <0>         0.0000
     37 H9         -2.1986    0.6843   -1.9505 H         1 <0>         0.0000
     38 H10        -0.5555    1.4645    4.9312 H         1 <0>         0.0000
     39 H11        -0.8644    0.4316    6.3413 H         1 <0>         0.0000
     40 H12        -1.8505    0.2528    4.8852 H         1 <0>         0.0000
     41 H13        -2.8140   -1.0304    3.0735 H         1 <0>         0.0000
     42 H14        -2.2985   -2.5117    2.1980 H         1 <0>         0.0000
     43 H15        -1.7870   -2.2504    3.9000 H         1 <0>         0.0000
     44 H16        -0.1316   -1.5722    5.0203 H         1 <0>         0.0000
     45 H17         1.1560   -0.3511    5.0733 H         1 <0>         0.0000
     46 H18         0.3126   -0.3752   -1.2662 H         1 <0>         0.0000
@<TRIPOS>BOND
     1    1    2 ar
     2    1    3 ar
     3    1   29 1
     4    2    4 ar
     5    2   30 1
     6    3    5 ar
     7    3   31 1
     8    4    6 ar
     9    4   32 1
    10    5    6 ar
    11    5    9 1
    12    6   28 1
    13    7   16 1
    14    7   17 2
    15    7   18 1
    16    8   18 am
    17    8   19 am
    18    8   21 2
    19    9   22 2
    20    9   27 1
    21   10   19 am
    22   10   20 am
    23   10   23 2
    24   11   13 1
    25   11   26 1
    26   11   33 1
    27   11   34 1
    28   12   13 1
    29   12   26 1
    30   12   35 1
    31   12   36 1
    32   13   27 1
    33   13   37 1
    34   14   16 1
    35   14   38 1
    36   14   39 1
    37   14   40 1
    38   15   18 1
    39   15   41 1
    40   15   42 1
    41   15   43 1
    42   16   44 1
    43   16   45 1
    44   17   19 1
    45   20   28 1
    46   20   46 1
    47   24   28 2
    48   25   28 2
