@<TRIPOS>MOLECULE
*****
   33    34     0     0     0
SMALL
NO_CHARGES

@<TRIPOS>ATOM
      1 C1         -1.6025    6.3915   -0.9670 C.ar      1 <0>         0.0000
      2 C2         -2.8801    6.0571   -1.4157 C.ar      1 <0>         0.0000
      3 C3         -0.5257    5.5463   -1.2351 C.ar      1 <0>         0.0000
      4 C4         -3.0811    4.8775   -2.1325 C.ar      1 <0>         0.0000
      5 C5         -0.7266    4.3667   -1.9519 C.ar      1 <0>         0.0000
      6 C6         -2.0043    4.0323   -2.4006 C.ar      1 <0>         0.0000
      7 C7          1.2711    1.0795   -1.3278 C.2       1 <0>         0.0000
      8 C8          0.9960   -0.1202   -0.4436 C.3       1 <0>         0.0000
      9 C9          2.0257   -0.2310    0.6755 C.3       1 <0>         0.0000
     10 C10         3.3397   -0.8764    0.2338 C.3       1 <0>         0.0000
     11 C11         4.1370   -0.0705   -0.7930 C.3       1 <0>         0.0000
     12 C12         3.4331    0.0796   -2.1375 C.3       1 <0>         0.0000
     13 N1          0.3952    2.0392   -1.3187 N.2       1 <0>         0.0000
     14 N2          2.4174    1.1088   -2.0869 N.pl3     1 <0>         0.0000
     15 O1          0.5844    2.9744   -3.6674 O.2       1 <0>         0.0000
     16 O2          1.8426    4.0442   -1.7653 O.2       1 <0>         0.0000
     17 S1          0.6782    3.3340   -2.2639 S.o2      1 <0>         0.0000
     18 Cl1        -2.3070    2.5842   -3.2915 Cl        1 <0>         0.0000
     19 H1         -1.4460    7.3104   -0.4096 H         1 <0>         0.0000
     20 H2         -3.7183    6.7155   -1.2073 H         1 <0>         0.0000
     21 H3          0.4645    5.8195   -0.8800 H         1 <0>         0.0000
     22 H4         -4.0834    4.6324   -2.4748 H         1 <0>         0.0000
     23 H5          0.0002    0.0009    0.0001 H         1 <0>         0.0000
     24 H6          0.9668   -1.0276   -1.0565 H         1 <0>         0.0000
     25 H7          2.2269    0.7542    1.1138 H         1 <0>         0.0000
     26 H8          1.6002   -0.8527    1.4729 H         1 <0>         0.0000
     27 H9          3.9689   -1.0135    1.1220 H         1 <0>         0.0000
     28 H10         3.1420   -1.8807   -0.1610 H         1 <0>         0.0000
     29 H11         4.4021    0.9123   -0.3839 H         1 <0>         0.0000
     30 H12         5.0854   -0.5959   -0.9635 H         1 <0>         0.0000
     31 H13         4.1736    0.3738   -2.8901 H         1 <0>         0.0000
     32 H14         3.0039   -0.8708   -2.4738 H         1 <0>         0.0000
     33 H15         2.5837    1.9257   -2.6688 H         1 <0>         0.0000
@<TRIPOS>BOND
     1    1    2 ar
     2    1    3 ar
     3    1   19 1
     4    2    4 ar
     5    2   20 1
     6    3    5 ar
     7    3   21 1
     8    4    6 ar
     9    4   22 1
    10    5    6 ar
    11    5   17 1
    12    6   18 1
    13    7    8 1
    14    7   13 2
    15    7   14 1
    16    8    9 1
    17    8   23 1
    18    8   24 1
    19    9   10 1
    20    9   25 1
    21    9   26 1
    22   10   11 1
    23   10   27 1
    24   10   28 1
    25   11   12 1
    26   11   29 1
    27   11   30 1
    28   12   14 1
    29   12   31 1
    30   12   32 1
    31   13   17 1
    32   14   33 1
    33   15   17 2
    34   16   17 2
