@<TRIPOS>MOLECULE
*****
   50    51     0     0     0
SMALL
NO_CHARGES

@<TRIPOS>ATOM
      1 C1          1.8851   -1.0363   -0.1124 C.ar      1 <0>         0.0000
      2 C2          0.8066   -0.4630    0.5610 C.ar      1 <0>         0.0000
      3 C3          2.8783   -1.6520    2.0022 C.ar      1 <0>         0.0000
      4 C4          5.2998   -2.2521    0.5062 C.ar      1 <0>         0.0000
      5 C5          3.8575   -2.7740   -1.3604 C.ar      1 <0>         0.0000
      6 C6          2.9210   -1.6309    0.6081 C.ar      1 <0>         0.0000
      7 C7          4.0395   -2.2254   -0.0910 C.ar      1 <0>         0.0000
      8 C8          1.7997   -1.0786    2.6757 C.ar      1 <0>         0.0000
      9 C9          0.7638   -0.4841    1.9551 C.ar      1 <0>         0.0000
     10 C10         6.3781   -2.8274   -0.1661 C.ar      1 <0>         0.0000
     11 C11         4.9358   -3.3494   -2.0327 C.ar      1 <0>         0.0000
     12 C12         6.1961   -3.3761   -1.4355 C.ar      1 <0>         0.0000
     13 C13         1.7797   -1.1143    4.1318 C.2       1 <0>         0.0000
     14 C14         7.7051   -2.2642    1.7254 C.3       1 <0>         0.0000
     15 C15         4.9266   -3.0124   -4.3869 C.3       1 <0>         0.0000
     16 C16         7.4773   -5.3302   -1.8778 C.3       1 <0>         0.0000
     17 C17        -1.8907    4.0087    5.2293 C.3       1 <0>         0.0000
     18 C18        -0.4031    0.1372    2.6508 C.3       1 <0>         0.0000
     19 C19        -0.0558    1.5090    3.2429 C.3       1 <0>         0.0000
     20 C20        -1.2293    2.1219    3.9944 C.3       1 <0>         0.0000
     21 O1          0.9083   -1.6517    4.8206 O.2       1 <0>         0.0000
     22 O2          2.8499   -0.4784    4.6804 O.3       1 <0>         0.0000
     23 O3          7.6045   -2.8460    0.4272 O.3       1 <0>         0.0000
     24 O4          4.7446   -3.8826   -3.2716 O.3       1 <0>         0.0000
     25 O5          7.2501   -3.9392   -2.0921 O.3       1 <0>         0.0000
     26 O6         -0.8392    3.3915    4.4989 O.3       1 <0>         0.0000
     27 H1          1.9040   -1.0118   -1.1994 H         1 <0>         0.0000
     28 H2          0.0044   -0.0022   -0.0095 H         1 <0>         0.0000
     29 H3          3.6850   -2.1150    2.5675 H         1 <0>         0.0000
     30 H4          5.4514   -1.8262    1.4959 H         1 <0>         0.0000
     31 H5          2.8777   -2.7592   -1.8333 H         1 <0>         0.0000
     32 H6          8.7344   -2.3453    2.0831 H         1 <0>         0.0000
     33 H7          7.0282   -2.7808    2.4106 H         1 <0>         0.0000
     34 H8          7.4246   -1.2100    1.6652 H         1 <0>         0.0000
     35 H9          4.7439   -3.5628   -5.3130 H         1 <0>         0.0000
     36 H10         5.9458   -2.6180   -4.3799 H         1 <0>         0.0000
     37 H11         4.2172   -2.1849   -4.3115 H         1 <0>         0.0000
     38 H12         8.3454   -5.6521   -2.4583 H         1 <0>         0.0000
     39 H13         6.5927   -5.8958   -2.1812 H         1 <0>         0.0000
     40 H14         7.6690   -5.4996   -0.8156 H         1 <0>         0.0000
     41 H15        -1.5558    4.9802    5.6011 H         1 <0>         0.0000
     42 H16        -2.1805    3.3670    6.0652 H         1 <0>         0.0000
     43 H17        -2.7480    4.1505    4.5671 H         1 <0>         0.0000
     44 H18        -0.7670   -0.5225    3.4556 H         1 <0>         0.0000
     45 H19        -1.2512    0.2477    1.9552 H         1 <0>         0.0000
     46 H20         0.2651    2.1961    2.4489 H         1 <0>         0.0000
     47 H21         0.8043    1.4243    3.9202 H         1 <0>         0.0000
     48 H22        -2.0888    2.2603    3.3306 H         1 <0>         0.0000
     49 H23        -1.5271    1.4890    4.8365 H         1 <0>         0.0000
     50 H24         3.4572   -0.1005    4.0089 H         1 <0>         0.0000
@<TRIPOS>BOND
     1    1    2 ar
     2    1    6 ar
     3    1   27 1
     4    2    9 ar
     5    2   28 1
     6    3    6 ar
     7    3    8 ar
     8    3   29 1
     9    4    7 ar
    10    4   10 ar
    11    4   30 1
    12    5    7 ar
    13    5   11 ar
    14    5   31 1
    15    6    7 1
    16    8    9 ar
    17    8   13 1
    18    9   18 1
    19   10   12 ar
    20   10   23 1
    21   11   12 ar
    22   11   24 1
    23   12   25 1
    24   13   21 2
    25   13   22 1
    26   14   23 1
    27   14   32 1
    28   14   33 1
    29   14   34 1
    30   15   24 1
    31   15   35 1
    32   15   36 1
    33   15   37 1
    34   16   25 1
    35   16   38 1
    36   16   39 1
    37   16   40 1
    38   17   26 1
    39   17   41 1
    40   17   42 1
    41   17   43 1
    42   18   19 1
    43   18   44 1
    44   18   45 1
    45   19   20 1
    46   19   46 1
    47   19   47 1
    48   20   26 1
    49   20   48 1
    50   20   49 1
    51   22   50 1
