@<TRIPOS>MOLECULE
*****
   22    22     0     0     0
SMALL
NO_CHARGES

@<TRIPOS>ATOM
      1 C1          3.6949   -3.3408    4.6084 C.2       1 <0>         0.0000
      2 C2          4.1320   -2.4539    5.5638 C.2       1 <0>         0.0000
      3 C3          2.3110   -1.7243    4.5598 C.2       1 <0>         0.0000
      4 C4         -1.2206   -0.6656    4.9447 C.2       1 <0>         0.0000
      5 C5         -2.4314   -1.4974    5.2096 C.3       1 <0>         0.0000
      6 C6          1.1785   -0.3006    2.8021 C.3       1 <0>         0.0000
      7 C7          1.1637   -0.7871    4.2498 C.3       1 <0>         0.0000
      8 N1          2.5611   -2.8806    3.9867 N.2       1 <0>         0.0000
      9 N2          3.2358   -1.4233    5.5207 N.pl3     1 <0>         0.0000
     10 N3         -0.1118   -1.3935    4.5570 N.am      1 <0>         0.0000
     11 O1         -1.2820    0.5509    5.0793 O.2       1 <0>         0.0000
     12 H1          4.1397   -4.2864    4.3354 H         1 <0>         0.0000
     13 H2          4.9686   -2.4607    6.2472 H         1 <0>         0.0000
     14 H3         -2.4940   -1.8268    6.2593 H         1 <0>         0.0000
     15 H4         -3.3681   -0.9488    5.0203 H         1 <0>         0.0000
     16 H5         -2.5100   -2.4194    4.6115 H         1 <0>         0.0000
     17 H6          1.1109   -1.1411    2.1027 H         1 <0>         0.0000
     18 H7          0.3306    0.3673    2.6129 H         1 <0>         0.0000
     19 H8          2.0894    0.2616    2.5678 H         1 <0>         0.0000
     20 H9          1.2334    0.0938    4.8997 H         1 <0>         0.0000
     21 H10         3.2530   -0.5922    6.0970 H         1 <0>         0.0000
     22 H11        -0.1973   -2.4028    4.4845 H         1 <0>         0.0000
@<TRIPOS>BOND
     1    1    2 2
     2    1    8 1
     3    1   12 1
     4    2    9 1
     5    2   13 1
     6    3    7 1
     7    3    8 2
     8    3    9 1
     9    4    5 1
    10    4   10 am
    11    4   11 2
    12    5   14 1
    13    5   15 1
    14    5   16 1
    15    6    7 1
    16    6   17 1
    17    6   18 1
    18    6   19 1
    19    7   10 1
    20    7   20 1
    21    9   21 1
    22   10   22 1
