@<TRIPOS>MOLECULE
*****
   39    39     0     0     0
SMALL
NO_CHARGES

@<TRIPOS>ATOM
      1 C1          1.6629    5.0985    4.7784 C.ar      1 <0>         0.0000
      2 C2          1.0931    3.8696    5.1116 C.ar      1 <0>         0.0000
      3 C3          2.5236    5.1946    3.6850 C.ar      1 <0>         0.0000
      4 C4          1.3839    2.7370    4.3512 C.ar      1 <0>         0.0000
      5 C5          2.8143    4.0619    2.9246 C.ar      1 <0>         0.0000
      6 C6          2.2445    2.8331    3.2577 C.ar      1 <0>         0.0000
      7 C7          1.2194   -0.9650   -1.4424 C.3       1 <0>         0.0000
      8 C8          1.0582    1.5251   -1.5073 C.3       1 <0>         0.0000
      9 C9          2.5567    1.6143    2.4401 C.3       1 <0>         0.0000
     10 C10        -0.9952   -0.9851    0.7378 C.3       1 <0>         0.0000
     11 C11        -2.4616   -0.9894    1.1695 C.3       1 <0>         0.0000
     12 C12         1.8538    0.3658    0.5773 C.3       1 <0>         0.0000
     13 C13        -0.6350    0.2168   -0.1570 C.3       1 <0>         0.0000
     14 C14         0.8625    0.2821   -0.6080 C.3       1 <0>         0.0000
     15 O1         -2.7177   -2.1094    2.0045 O.3       1 <0>         0.0000
     16 O2         -1.0091    1.4168    0.5243 O.3       1 <0>         0.0000
     17 O3          1.6073    1.5059    1.3877 O.3       1 <0>         0.0000
     18 H1          1.4377    5.9803    5.3711 H         1 <0>         0.0000
     19 H2          0.4239    3.7942    5.9635 H         1 <0>         0.0000
     20 H3          2.9682    6.1511    3.4260 H         1 <0>         0.0000
     21 H4          0.9352    1.7838    4.6182 H         1 <0>         0.0000
     22 H5          3.4859    4.1463    2.0742 H         1 <0>         0.0000
     23 H6          1.0986   -1.8813   -0.8527 H         1 <0>         0.0000
     24 H7          2.2596   -0.9277   -1.7848 H         1 <0>         0.0000
     25 H8          0.5775   -1.0635   -2.3234 H         1 <0>         0.0000
     26 H9          0.8223    2.4557   -0.9802 H         1 <0>         0.0000
     27 H10         0.4160    1.4726   -2.3939 H         1 <0>         0.0000
     28 H11         2.0951    1.6011   -1.8546 H         1 <0>         0.0000
     29 H12         3.5617    1.6784    2.0093 H         1 <0>         0.0000
     30 H13         2.5126    0.7110    3.0581 H         1 <0>         0.0000
     31 H14        -0.7907   -1.9181    0.2031 H         1 <0>         0.0000
     32 H15        -0.3859   -0.9709    1.6483 H         1 <0>         0.0000
     33 H16        -3.1329   -1.0302    0.3062 H         1 <0>         0.0000
     34 H17        -2.6835   -0.0804    1.7378 H         1 <0>         0.0000
     35 H18         1.7891   -0.5253    1.2104 H         1 <0>         0.0000
     36 H19         2.8846    0.4333    0.2097 H         1 <0>         0.0000
     37 H20        -1.2573    0.1794   -1.0596 H         1 <0>         0.0000
     38 H21        -3.6562   -2.0678    2.2507 H         1 <0>         0.0000
     39 H22        -0.5063    1.4273    1.3519 H         1 <0>         0.0000
@<TRIPOS>BOND
     1    1    3 ar
     2    1    2 ar
     3    1   18 1
     4    2    4 ar
     5    2   19 1
     6    3    5 ar
     7    3   20 1
     8    4    6 ar
     9    4   21 1
    10    5    6 ar
    11    5   22 1
    12    6    9 1
    13    7   14 1
    14    7   23 1
    15    7   24 1
    16    7   25 1
    17    8   14 1
    18    8   26 1
    19    8   27 1
    20    8   28 1
    21    9   17 1
    22    9   29 1
    23    9   30 1
    24   10   11 1
    25   10   13 1
    26   10   31 1
    27   10   32 1
    28   11   15 1
    29   11   33 1
    30   11   34 1
    31   12   14 1
    32   12   17 1
    33   12   35 1
    34   12   36 1
    35   13   14 1
    36   13   16 1
    37   13   37 1
    38   15   38 1
    39   16   39 1
