@<TRIPOS>MOLECULE
*****
   22    22     0     0     0
SMALL
NO_CHARGES

@<TRIPOS>ATOM
      1 C1         -1.2279    0.9456    3.7678 C.ar      1 <0>         0.0000
      2 C2         -0.9015    1.4900    5.0099 C.ar      1 <0>         0.0000
      3 C3         -0.4469   -0.0759    3.2271 C.ar      1 <0>         0.0000
      4 C4          0.2059    1.0131    5.7112 C.ar      1 <0>         0.0000
      5 C5          0.6605   -0.5528    3.9284 C.ar      1 <0>         0.0000
      6 C6          0.9869   -0.0083    5.1705 C.ar      1 <0>         0.0000
      7 N1          0.7569   -2.0858    1.7500 N.pl3     1 <0>         0.0000
      8 N2          1.8594   -2.1282    6.5673 N.pl3     1 <0>         0.0000
      9 O1          2.9289   -1.3129    2.9037 O.2       1 <0>         0.0000
     10 O2          1.4715   -3.0255    4.0398 O.2       1 <0>         0.0000
     11 O3          3.4967   -0.7160    5.1794 O.2       1 <0>         0.0000
     12 O4          2.4933    0.2711    7.2672 O.2       1 <0>         0.0000
     13 F1          0.6308   -2.1685    7.1752 F         1 <0>         0.0000
     14 S1          1.6075   -1.8384    3.2100 S.o2      1 <0>         0.0000
     15 S2          2.3684   -0.5708    6.0871 S.o2      1 <0>         0.0000
     16 H1         -2.0914    1.3153    3.2226 H         1 <0>         0.0000
     17 H2         -1.5098    2.2853    5.4309 H         1 <0>         0.0000
     18 H3         -0.7130   -0.4924    2.2592 H         1 <0>         0.0000
     19 H4          0.4507    1.4469    6.6771 H         1 <0>         0.0000
     20 H5          1.2014   -1.7783    0.8763 H         1 <0>         0.0000
     21 H6          0.2053   -2.9470    1.6544 H         1 <0>         0.0000
     22 H7          2.0683   -2.9268    5.9560 H         1 <0>         0.0000
@<TRIPOS>BOND
     1    1    2 ar
     2    1    3 ar
     3    1   16 1
     4    2    4 ar
     5    2   17 1
     6    3    5 ar
     7    3   18 1
     8    4    6 ar
     9    4   19 1
    10    5    6 ar
    11    5   14 1
    12    6   15 1
    13    7   14 1
    14    7   20 1
    15    7   21 1
    16    8   13 1
    17    8   15 1
    18    8   22 1
    19    9   14 2
    20   10   14 2
    21   11   15 2
    22   12   15 2
