@<TRIPOS>MOLECULE
*****
   36    37     0     0     0
SMALL
NO_CHARGES

@<TRIPOS>ATOM
      1 C1         -2.1383   -2.9572    5.5836 C.ar      1 <0>         0.0000
      2 C2         -1.9549   -4.1878    4.9661 C.ar      1 <0>         0.0000
      3 C3         -2.2156   -1.7736    4.8359 C.ar      1 <0>         0.0000
      4 C4         -2.0245   -3.1091    2.7683 C.ar      1 <0>         0.0000
      5 C5         -1.8904   -4.2528    3.5746 C.ar      1 <0>         0.0000
      6 C6         -2.1547   -1.8756    3.4346 C.ar      1 <0>         0.0000
      7 C7         -2.3800   -0.5175    5.6750 C.2       1 <0>         0.0000
      8 C8          0.9923   -2.7103   -0.8722 C.3       1 <0>         0.0000
      9 C9          1.2840   -1.2267   -0.6307 C.3       1 <0>         0.0000
     10 C10        -0.9987   -1.4350   -1.1311 C.3       1 <0>         0.0000
     11 C11        -0.5073   -2.7832   -0.5822 C.3       1 <0>         0.0000
     12 C12         0.1114   -5.7729    2.2724 C.3       1 <0>         0.0000
     13 C13        -1.9972   -3.1640    1.2565 C.3       1 <0>         0.0000
     14 O1         -2.9169   -0.5693    6.7591 O.2       1 <0>         0.0000
     15 O2         -1.5644   -6.8473    4.0311 O.2       1 <0>         0.0000
     16 O3         -2.4746   -6.1651    1.7507 O.2       1 <0>         0.0000
     17 O4          0.1106   -0.5276   -1.0782 O.3       1 <0>         0.0000
     18 O5         -1.8557    0.6459    5.2334 O.3       1 <0>         0.0000
     19 O6         -0.6566   -2.8829    0.8427 O.3       1 <0>         0.0000
     20 S1         -1.5778   -5.9196    2.8913 S.o2      1 <0>         0.0000
     21 Cl1        -2.2686   -0.4210    2.4375 Cl        1 <0>         0.0000
     22 H1         -2.2201   -2.8830    6.6626 H         1 <0>         0.0000
     23 H2         -1.8657   -5.0990    5.5477 H         1 <0>         0.0000
     24 H3          1.1754   -2.9761   -1.9180 H         1 <0>         0.0000
     25 H4          1.5672   -3.3807   -0.2293 H         1 <0>         0.0000
     26 H5          1.4489   -1.0286    0.4362 H         1 <0>         0.0000
     27 H6          2.1399   -0.8529   -1.1993 H         1 <0>         0.0000
     28 H7         -1.3297   -1.5407   -2.1726 H         1 <0>         0.0000
     29 H8         -1.8259   -1.0254   -0.5435 H         1 <0>         0.0000
     30 H9         -1.0038   -3.6358   -1.0636 H         1 <0>         0.0000
     31 H10         0.3458   -6.7371    1.8161 H         1 <0>         0.0000
     32 H11         0.1544   -4.9622    1.5441 H         1 <0>         0.0000
     33 H12         0.7687   -5.5781    3.1211 H         1 <0>         0.0000
     34 H13        -2.3106   -4.1456    0.8947 H         1 <0>         0.0000
     35 H14        -2.6938   -2.4222    0.8537 H         1 <0>         0.0000
     36 H15        -1.5101    0.5613    4.3263 H         1 <0>         0.0000
@<TRIPOS>BOND
     1    1    2 ar
     2    1    3 ar
     3    1   22 1
     4    2    5 ar
     5    2   23 1
     6    3    6 ar
     7    3    7 1
     8    4    5 ar
     9    4    6 ar
    10    4   13 1
    11    5   20 1
    12    6   21 1
    13    7   14 2
    14    7   18 1
    15    8    9 1
    16    8   11 1
    17    8   24 1
    18    8   25 1
    19    9   17 1
    20    9   26 1
    21    9   27 1
    22   10   11 1
    23   10   17 1
    24   10   28 1
    25   10   29 1
    26   11   19 1
    27   11   30 1
    28   12   20 1
    29   12   31 1
    30   12   32 1
    31   12   33 1
    32   13   19 1
    33   13   34 1
    34   13   35 1
    35   15   20 2
    36   16   20 2
    37   18   36 1
