@<TRIPOS>MOLECULE
*****
   46    48     0     0     0
SMALL
NO_CHARGES

@<TRIPOS>ATOM
      1 C1         -2.1151    1.2587   -0.8490 C.ar      1 <0>         0.0000
      2 C2         -2.7745    2.4767   -0.7337 C.ar      1 <0>         0.0000
      3 C3         -2.9884    1.7150    5.8765 C.2       1 <0>         0.0000
      4 C4         -1.9622    0.4211    0.2665 C.ar      1 <0>         0.0000
      5 C5         -3.1992    2.0341    1.6241 C.ar      1 <0>         0.0000
      6 C6         -3.3357    2.8516    0.4905 C.ar      1 <0>         0.0000
      7 C7         -2.5014    0.8131    1.5032 C.ar      1 <0>         0.0000
      8 C8         -0.2789   -1.5133   -2.1589 C.2       1 <0>         0.0000
      9 C9         -1.6547   -3.1436   -0.7197 C.2       1 <0>         0.0000
     10 C10        -1.1549   -0.8373    0.1094 C.2       1 <0>         0.0000
     11 C11         0.7427   -2.6290   -2.2279 C.3       1 <0>         0.0000
     12 C12        -0.4309   -3.9974   -0.4376 C.3       1 <0>         0.0000
     13 C13         0.8994   -3.3820   -0.8998 C.3       1 <0>         0.0000
     14 C14        -1.4349   -1.6840   -1.1490 C.3       1 <0>         0.0000
     15 C15        -5.8129    3.9450   -0.2806 C.3       1 <0>         0.0000
     16 C16        -5.1307    2.4128    4.6881 C.3       1 <0>         0.0000
     17 C17        -4.9857    2.0897    3.2105 C.3       1 <0>         0.0000
     18 N1         -2.5915    0.6196    6.4975 N.2       1 <0>         0.0000
     19 N2         -3.6663   -0.2213    6.4840 N.2       1 <0>         0.0000
     20 N3         -4.6792    0.3272    5.8871 N.2       1 <0>         0.0000
     21 N4         -4.2755    1.5646    5.5035 N.pl3     1 <0>         0.0000
     22 O1         -0.2393   -0.5265   -2.8726 O.2       1 <0>         0.0000
     23 O2         -2.7894   -3.5761   -0.6378 O.2       1 <0>         0.0000
     24 O3         -0.3194   -1.1757    0.9274 O.2       1 <0>         0.0000
     25 O4         -4.5422    4.8600    1.8620 O.2       1 <0>         0.0000
     26 O5         -3.5519    5.3162   -0.4489 O.2       1 <0>         0.0000
     27 O6         -3.6344    2.4227    2.8560 O.3       1 <0>         0.0000
     28 S1         -4.2474    4.4279    0.4910 S.o2      1 <0>         0.0000
     29 Cl1        -2.3802   -0.1843    2.9224 Cl        1 <0>         0.0000
     30 H1         -1.6776    0.9671   -1.7997 H         1 <0>         0.0000
     31 H2         -2.8423    3.1486   -1.5834 H         1 <0>         0.0000
     32 H3         -2.3958    2.5959    5.6766 H         1 <0>         0.0000
     33 H4          0.3887   -3.3156   -3.0120 H         1 <0>         0.0000
     34 H5          1.6836   -2.2030   -2.5850 H         1 <0>         0.0000
     35 H6         -0.4173   -4.1912    0.6404 H         1 <0>         0.0000
     36 H7         -0.6183   -4.9618   -0.9222 H         1 <0>         0.0000
     37 H8          1.2748   -2.6983   -0.1362 H         1 <0>         0.0000
     38 H9          1.6449   -4.1734   -1.0188 H         1 <0>         0.0000
     39 H10        -2.3527   -1.3369   -1.6242 H         1 <0>         0.0000
     40 H11        -6.4190    4.8529   -0.3177 H         1 <0>         0.0000
     41 H12        -5.6155    3.5742   -1.2868 H         1 <0>         0.0000
     42 H13        -6.2994    3.1839    0.3309 H         1 <0>         0.0000
     43 H14        -6.1625    2.2532    5.0066 H         1 <0>         0.0000
     44 H15        -4.8600    3.4560    4.8626 H         1 <0>         0.0000
     45 H16        -5.1763    1.0277    3.0234 H         1 <0>         0.0000
     46 H17        -5.6857    2.7084    2.6399 H         1 <0>         0.0000
@<TRIPOS>BOND
     1    1    2 ar
     2    1    4 ar
     3    1   30 1
     4    2    6 ar
     5    2   31 1
     6    3   18 2
     7    3   21 1
     8    3   32 1
     9    4    7 ar
    10    4   10 1
    11    5    6 ar
    12    5    7 ar
    13    5   27 1
    14    6   28 1
    15    7   29 1
    16    8   11 1
    17    8   14 1
    18    8   22 2
    19    9   12 1
    20    9   14 1
    21    9   23 2
    22   10   14 1
    23   10   24 2
    24   11   13 1
    25   11   33 1
    26   11   34 1
    27   12   13 1
    28   12   35 1
    29   12   36 1
    30   13   37 1
    31   13   38 1
    32   14   39 1
    33   15   28 1
    34   15   40 1
    35   15   41 1
    36   15   42 1
    37   16   17 1
    38   16   21 1
    39   16   43 1
    40   16   44 1
    41   17   27 1
    42   17   45 1
    43   17   46 1
    44   18   19 1
    45   19   20 2
    46   20   21 1
    47   25   28 2
    48   26   28 2
