@<TRIPOS>MOLECULE
*****
   37    39     0     0     0
SMALL
NO_CHARGES

@<TRIPOS>ATOM
      1 C1         -3.5954   -2.4182   -0.8879 C.ar      1 <0>         0.0000
      2 C2         -2.2494   -3.2798    0.8622 C.ar      1 <0>         0.0000
      3 C3         -3.4923   -3.2709    0.2139 C.ar      1 <0>         0.0000
      4 C4         -2.5215   -1.6092   -1.2718 C.ar      1 <0>         0.0000
      5 C5         -1.3235   -1.6675   -0.5204 C.ar      1 <0>         0.0000
      6 C6         -1.5136   -3.6391   -3.7300 C.3       1 <0>         0.0000
      7 C7         -0.6983   -3.0674   -4.8697 C.3       1 <0>         0.0000
      8 C8          1.2125   -1.3263   -0.2912 C.3       1 <0>         0.0000
      9 C9          0.9721   -1.4252   -1.7789 C.3       1 <0>         0.0000
     10 C10        -1.8707   -2.3013   -4.3161 C.3       1 <0>         0.0000
     11 C11        -0.0986   -0.8268   -0.8284 C.3       1 <0>         0.0000
     12 C12        -4.6403   -4.1247    0.6861 C.3       1 <0>         0.0000
     13 C13        -0.2702    0.6901   -0.8388 C.3       1 <0>         0.0000
     14 C14        -2.6820   -0.7406   -2.4906 C.3       1 <0>         0.0000
     15 N1         -1.2118   -2.5140    0.5117 N.ar      1 <0>         0.0000
     16 N2         -1.6153   -1.0627   -3.5328 N.4       1 <0>         0.0000
     17 H1         -4.5226   -2.3877   -1.4577 H         1 <0>         0.0000
     18 H2         -2.0828   -3.9421    1.7110 H         1 <0>         0.0000
     19 H3         -2.1992   -4.4550   -3.9319 H         1 <0>         0.0000
     20 H4         -1.0642   -3.6672   -2.7439 H         1 <0>         0.0000
     21 H5          0.3019   -2.7096   -4.6416 H         1 <0>         0.0000
     22 H6         -0.8091   -3.4846   -5.8648 H         1 <0>         0.0000
     23 H7          1.1932   -2.2471    0.2777 H         1 <0>         0.0000
     24 H8          1.9220   -0.5822    0.0551 H         1 <0>         0.0000
     25 H9          1.5213   -0.7485   -2.4313 H         1 <0>         0.0000
     26 H10         0.8367   -2.4327   -2.1657 H         1 <0>         0.0000
     27 H11        -2.7739   -2.2000   -4.9087 H         1 <0>         0.0000
     28 H12        -5.2510   -4.4744   -0.1509 H         1 <0>         0.0000
     29 H13        -4.2850   -4.9981    1.2386 H         1 <0>         0.0000
     30 H14        -5.2940   -3.5543    1.3554 H         1 <0>         0.0000
     31 H15         0.7073    1.1779   -0.8732 H         1 <0>         0.0000
     32 H16        -0.7740    1.0192    0.0748 H         1 <0>         0.0000
     33 H17        -0.8392    1.0781   -1.6904 H         1 <0>         0.0000
     34 H18        -3.6467   -0.9045   -2.9726 H         1 <0>         0.0000
     35 H19        -2.5873    0.3232   -2.2718 H         1 <0>         0.0000
     36 H20        -0.7104   -1.1320   -3.0296 H         1 <0>         0.0000
     37 H21        -1.5222   -0.2762   -4.1859 H         1 <0>         0.0000
@<TRIPOS>BOND
     1    1    3 ar
     2    1    4 ar
     3    1   17 1
     4    2    3 ar
     5    2   15 ar
     6    2   18 1
     7    3   12 1
     8    4    5 ar
     9    4   14 1
    10    5   11 1
    11    5   15 ar
    12    6    7 1
    13    6   10 1
    14    6   19 1
    15    6   20 1
    16    7   10 1
    17    7   21 1
    18    7   22 1
    19    8    9 1
    20    8   11 1
    21    8   23 1
    22    8   24 1
    23    9   11 1
    24    9   25 1
    25    9   26 1
    26   10   16 1
    27   10   27 1
    28   11   13 1
    29   12   28 1
    30   12   29 1
    31   12   30 1
    32   13   31 1
    33   13   32 1
    34   13   33 1
    35   14   16 1
    36   14   34 1
    37   14   35 1
    38   16   36 1
    39   16   37 1
