@<TRIPOS>MOLECULE
*****
   32    32     0     0     0
SMALL
NO_CHARGES

@<TRIPOS>ATOM
      1 C1          1.7368   -1.8016    0.2978 C.3       1 <0>         0.0000
      2 C2          0.5573   -2.7829    0.2201 C.3       1 <0>         0.0000
      3 C3          1.9289   -1.3992   -1.1692 C.3       1 <0>         0.0000
      4 C4          0.8362   -3.5611   -1.0828 C.3       1 <0>         0.0000
      5 C5          1.6194   -4.8581   -0.8051 C.3       1 <0>         0.0000
      6 C6          4.3439   -8.8541   -3.2782 C.3       1 <0>         0.0000
      7 C7          2.0533   -5.5229   -2.1078 C.3       1 <0>         0.0000
      8 C8          3.5202   -7.5755   -3.4221 C.3       1 <0>         0.0000
      9 C9          4.7887   -9.3801   -4.6255 C.3       1 <0>         0.0000
     10 N1          1.6332   -2.6361   -1.9306 N.3       1 <0>         0.0000
     11 O1          2.1438   -8.0384   -1.1849 O.2       1 <0>         0.0000
     12 O2          4.2592   -6.6164   -1.0467 O.2       1 <0>         0.0000
     13 F1          3.7332   -9.6617   -5.4343 F         1 <0>         0.0000
     14 F2          5.5649   -8.4837   -5.2891 F         1 <0>         0.0000
     15 F3          5.5095  -10.5170   -4.4957 F         1 <0>         0.0000
     16 S1          3.0299   -7.0087   -1.7603 S.o2      1 <0>         0.0000
     17 H1          1.5408   -0.9423    0.9446 H         1 <0>         0.0000
     18 H2          2.6326   -2.3068    0.6740 H         1 <0>         0.0000
     19 H3          0.4775   -3.4367    1.0933 H         1 <0>         0.0000
     20 H4         -0.3834   -2.2279    0.1301 H         1 <0>         0.0000
     21 H5          1.2358   -0.5841   -1.4261 H         1 <0>         0.0000
     22 H6          2.9462   -1.0516   -1.3774 H         1 <0>         0.0000
     23 H7         -0.1011   -3.8264   -1.5885 H         1 <0>         0.0000
     24 H8          0.9969   -5.5448   -0.2223 H         1 <0>         0.0000
     25 H9          2.5093   -4.6236   -0.2128 H         1 <0>         0.0000
     26 H10         3.7579   -9.6365   -2.7906 H         1 <0>         0.0000
     27 H11         5.2393   -8.6699   -2.6801 H         1 <0>         0.0000
     28 H12         1.1976   -5.8502   -2.7072 H         1 <0>         0.0000
     29 H13         2.6829   -4.8420   -2.6865 H         1 <0>         0.0000
     30 H14         4.0992   -6.7704   -3.8799 H         1 <0>         0.0000
     31 H15         2.6031   -7.7490   -3.9898 H         1 <0>         0.0000
     32 H16         1.1439   -2.4199   -2.7925 H         1 <0>         0.0000
@<TRIPOS>BOND
     1    1    2 1
     2    1    3 1
     3    1   17 1
     4    1   18 1
     5    2    4 1
     6    2   19 1
     7    2   20 1
     8    3   10 1
     9    3   21 1
    10    3   22 1
    11    4    5 1
    12    4   10 1
    13    4   23 1
    14    5    7 1
    15    5   24 1
    16    5   25 1
    17    6    8 1
    18    6    9 1
    19    6   26 1
    20    6   27 1
    21    7   16 1
    22    7   28 1
    23    7   29 1
    24    8   16 1
    25    8   30 1
    26    8   31 1
    27    9   13 1
    28    9   14 1
    29    9   15 1
    30   10   32 1
    31   11   16 2
    32   12   16 2
