@<TRIPOS>MOLECULE
*****
   48    51     0     0     0
SMALL
NO_CHARGES

@<TRIPOS>ATOM
      1 C1          4.9874   -2.3148   -1.9339 C.ar      1 <0>         0.0000
      2 C2          4.5579   -4.5276   -1.0811 C.ar      1 <0>         0.0000
      3 C3          3.4582   -3.0777    1.3400 C.ar      1 <0>         0.0000
      4 C4          2.5733   -1.5017   -0.2585 C.ar      1 <0>         0.0000
      5 C5          5.8890   -2.8427   -2.8586 C.ar      1 <0>         0.0000
      6 C6          5.4422   -5.0708   -2.0106 C.ar      1 <0>         0.0000
      7 C7          2.6440   -2.5408    2.3366 C.ar      1 <0>         0.0000
      8 C8          1.7461   -0.9615    0.7273 C.ar      1 <0>         0.0000
      9 C9          8.1173   -3.6904   -0.3106 C.ar      1 <0>         0.0000
     10 C10         8.2854   -6.0971   -0.0324 C.ar      1 <0>         0.0000
     11 C11        -2.1366   -1.0779    1.0569 C.ar      1 <0>         0.0000
     12 C12        -3.0102   -0.7808    3.3047 C.ar      1 <0>         0.0000
     13 C13         7.4888   -3.5863    0.9317 C.ar      1 <0>         0.0000
     14 C14         7.6605   -5.9977    1.2124 C.ar      1 <0>         0.0000
     15 C15        -3.0858   -0.1778    0.5655 C.ar      1 <0>         0.0000
     16 C16        -3.9550    0.1244    2.8181 C.ar      1 <0>         0.0000
     17 C17         4.3267   -3.1422   -1.0107 C.ar      1 <0>         0.0000
     18 C18         3.4386   -2.5711    0.0278 C.ar      1 <0>         0.0000
     19 C19         6.1293   -4.2162   -2.8736 C.ar      1 <0>         0.0000
     20 C20         1.7906   -1.4837    2.0198 C.ar      1 <0>         0.0000
     21 C21         8.4933   -4.9444   -0.7902 C.ar      1 <0>         0.0000
     22 C22        -2.1098   -1.3748    2.4192 C.ar      1 <0>         0.0000
     23 C23         7.2588   -4.7436    1.6777 C.ar      1 <0>         0.0000
     24 C24        -3.9850    0.4180    1.4519 C.ar      1 <0>         0.0000
     25 O1          7.1157   -4.6537   -3.7733 O.3       1 <0>         0.0000
     26 O2          0.9789   -0.8542    2.9749 O.3       1 <0>         0.0000
     27 O3          9.0836   -5.0115   -2.0621 O.3       1 <0>         0.0000
     28 O4         -1.1812   -2.3298    2.8485 O.3       1 <0>         0.0000
     29 S1          8.1890   -5.8320   -3.2359 S.3       1 <0>         0.0000
     30 S2         -0.0012   -1.8190    3.9375 S.3       1 <0>         0.0000
     31 Cl1         6.4437   -4.6246    3.2316 Cl        1 <0>         0.0000
     32 Cl2        -5.1756    1.5557    0.8411 Cl        1 <0>         0.0000
     33 H1          4.8405   -1.2390   -1.8936 H         1 <0>         0.0000
     34 H2          4.0324   -5.1934   -0.4027 H         1 <0>         0.0000
     35 H3          4.1455   -3.8773    1.5983 H         1 <0>         0.0000
     36 H4          2.5201   -1.1082   -1.2700 H         1 <0>         0.0000
     37 H5          6.4422   -2.2020   -3.5387 H         1 <0>         0.0000
     38 H6          5.6287   -6.1390   -2.0339 H         1 <0>         0.0000
     39 H7          2.6758   -2.9344    3.3478 H         1 <0>         0.0000
     40 H8          1.0659   -0.1430    0.5113 H         1 <0>         0.0000
     41 H9          8.2817   -2.8122   -0.9255 H         1 <0>         0.0000
     42 H10         8.5925   -7.0643   -0.4187 H         1 <0>         0.0000
     43 H11        -1.4211   -1.5568    0.3955 H         1 <0>         0.0000
     44 H12        -2.9700   -1.0204    4.3630 H         1 <0>         0.0000
     45 H13         7.1631   -2.6205    1.3038 H         1 <0>         0.0000
     46 H14         7.4855   -6.8844    1.8134 H         1 <0>         0.0000
     47 H15        -3.1228    0.0619   -0.4923 H         1 <0>         0.0000
     48 H16        -4.6653    0.5937    3.4912 H         1 <0>         0.0000
@<TRIPOS>BOND
     1    1    5 ar
     2    1   17 ar
     3    1   33 1
     4    2    6 ar
     5    2   17 ar
     6    2   34 1
     7    3    7 ar
     8    3   18 ar
     9    3   35 1
    10    4    8 ar
    11    4   18 ar
    12    4   36 1
    13    5   19 ar
    14    5   37 1
    15    6   19 ar
    16    6   38 1
    17    7   20 ar
    18    7   39 1
    19    8   20 ar
    20    8   40 1
    21    9   13 ar
    22    9   21 ar
    23    9   41 1
    24   10   14 ar
    25   10   21 ar
    26   10   42 1
    27   11   15 ar
    28   11   22 ar
    29   11   43 1
    30   12   16 ar
    31   12   22 ar
    32   12   44 1
    33   13   23 ar
    34   13   45 1
    35   14   23 ar
    36   14   46 1
    37   15   24 ar
    38   15   47 1
    39   16   24 ar
    40   16   48 1
    41   17   18 1
    42   19   25 1
    43   20   26 1
    44   21   27 1
    45   22   28 1
    46   23   31 1
    47   24   32 1
    48   25   29 1
    49   26   30 1
    50   27   29 1
    51   28   30 1
