@<TRIPOS>MOLECULE
*****
   27    29     0     0     0
SMALL
NO_CHARGES

@<TRIPOS>ATOM
      1 C1          1.4904   -1.4004   -0.0707 C.ar      1 <0>         0.0000
      2 C2          0.6319   -0.5415    0.6237 C.ar      1 <0>         0.0000
      3 C3          5.7698   -2.7018    3.9967 C.ar      1 <0>         0.0000
      4 C4          5.9485   -4.0418    3.6396 C.ar      1 <0>         0.0000
      5 C5          2.4722   -2.1071    0.6233 C.ar      1 <0>         0.0000
      6 C6          0.7458   -0.4248    2.0069 C.ar      1 <0>         0.0000
      7 C7          4.6714   -2.0141    3.4899 C.ar      1 <0>         0.0000
      8 C8          5.0199   -4.6189    2.7710 C.ar      1 <0>         0.0000
      9 C9          1.7769   -1.3761    6.2989 C.2       1 <0>         0.0000
     10 C10         1.2292   -0.1459    6.0990 C.2       1 <0>         0.0000
     11 C11         2.6262   -1.9764    2.0114 C.ar      1 <0>         0.0000
     12 C12         1.7254   -1.1447    2.7167 C.ar      1 <0>         0.0000
     13 C13         3.7787   -2.6854    2.6387 C.ar      1 <0>         0.0000
     14 C14         1.7079   -1.0641    4.1807 C.2       1 <0>         0.0000
     15 N1          3.9641   -3.9642    2.2697 N.ar      1 <0>         0.0000
     16 N2          2.0728   -1.9484    5.0695 N.2       1 <0>         0.0000
     17 O1          1.1770    0.0732    4.7443 O.3       1 <0>         0.0000
     18 H1          1.4000   -1.5133   -1.1478 H         1 <0>         0.0000
     19 H2         -0.1330    0.0198    0.0938 H         1 <0>         0.0000
     20 H3          6.4757   -2.2023    4.6555 H         1 <0>         0.0000
     21 H4          6.7869   -4.6227    4.0134 H         1 <0>         0.0000
     22 H5          3.1514   -2.7679    0.0942 H         1 <0>         0.0000
     23 H6          0.0565    0.2077    2.5567 H         1 <0>         0.0000
     24 H7          4.5050   -0.9717    3.7409 H         1 <0>         0.0000
     25 H8          5.1289   -5.6564    2.4575 H         1 <0>         0.0000
     26 H9          1.9716   -1.8908    7.2302 H         1 <0>         0.0000
     27 H10         0.8556    0.6430    6.7342 H         1 <0>         0.0000
@<TRIPOS>BOND
     1    1    2 ar
     2    1    5 ar
     3    1   18 1
     4    2    6 ar
     5    2   19 1
     6    3    4 ar
     7    3    7 ar
     8    3   20 1
     9    4    8 ar
    10    4   21 1
    11    5   11 ar
    12    5   22 1
    13    6   12 ar
    14    6   23 1
    15    7   13 ar
    16    7   24 1
    17    8   15 ar
    18    8   25 1
    19    9   10 2
    20    9   16 1
    21    9   26 1
    22   10   17 1
    23   10   27 1
    24   11   12 ar
    25   11   13 1
    26   12   14 1
    27   13   15 ar
    28   14   16 2
    29   14   17 1
