@<TRIPOS>MOLECULE
*****
   25    26     0     0     0
SMALL
NO_CHARGES

@<TRIPOS>ATOM
      1 C1          1.1851   -3.9846    2.2540 C.ar      1 <0>         0.0000
      2 C2          0.4632   -4.0399    1.0570 C.ar      1 <0>         0.0000
      3 C3          1.4971   -2.7398    2.8109 C.ar      1 <0>         0.0000
      4 C4          0.0594   -2.8600    0.4249 C.ar      1 <0>         0.0000
      5 C5          1.0905   -1.5634    2.1740 C.ar      1 <0>         0.0000
      6 C6          0.3686   -1.6059    0.9721 C.ar      1 <0>         0.0000
      7 C7          0.5053    1.1622   -1.1603 C.3       1 <0>         0.0000
      8 C8         -0.0724   -0.2764   -1.2511 C.3       1 <0>         0.0000
      9 C9          0.8585    0.8940    0.3279 C.3       1 <0>         0.0000
     10 C10        -0.1106   -0.3333    0.3112 C.3       1 <0>         0.0000
     11 C11        -1.5002    0.0422    0.8521 C.3       1 <0>         0.0000
     12 H1          1.5034   -4.9005    2.7453 H         1 <0>         0.0000
     13 H2          0.2170   -5.0022    0.6145 H         1 <0>         0.0000
     14 H3          2.0594   -2.6854    3.7401 H         1 <0>         0.0000
     15 H4         -0.4996   -2.9146   -0.5066 H         1 <0>         0.0000
     16 H5          1.3404   -0.6009    2.6147 H         1 <0>         0.0000
     17 H6         -0.2638    1.9308   -1.2766 H         1 <0>         0.0000
     18 H7          1.3371    1.4015   -1.8281 H         1 <0>         0.0000
     19 H8         -1.0264   -0.4066   -1.7722 H         1 <0>         0.0000
     20 H9          0.6555   -0.9806   -1.6643 H         1 <0>         0.0000
     21 H10         1.9009    0.5851    0.4481 H         1 <0>         0.0000
     22 H11         0.6381    1.6860    1.0510 H         1 <0>         0.0000
     23 H12        -1.8706    0.9633    0.3874 H         1 <0>         0.0000
     24 H13        -1.4639    0.1973    1.9359 H         1 <0>         0.0000
     25 H14        -2.2221   -0.7565    0.6499 H         1 <0>         0.0000
@<TRIPOS>BOND
     1    1    3 ar
     2    1    2 ar
     3    1   12 1
     4    2    4 ar
     5    2   13 1
     6    3    5 ar
     7    3   14 1
     8    4    6 ar
     9    4   15 1
    10    5    6 ar
    11    5   16 1
    12    6   10 1
    13    7    9 1
    14    7    8 1
    15    7   17 1
    16    7   18 1
    17    8   10 1
    18    8   19 1
    19    8   20 1
    20    9   10 1
    21    9   21 1
    22    9   22 1
    23   10   11 1
    24   11   23 1
    25   11   24 1
    26   11   25 1
