@<TRIPOS>MOLECULE
*****
   24    24     0     0     0
SMALL
NO_CHARGES

@<TRIPOS>ATOM
      1 C1          0.4538    0.4896   -0.2620 C.2       1 <0>         0.0000
      2 C2          0.0385   -0.6139   -0.9288 C.2       1 <0>         0.0000
      3 C3          0.9924    1.7093   -0.8808 C.2       1 <0>         0.0000
      4 C4         -0.0699   -1.4397    1.3483 C.3       1 <0>         0.0000
      5 C5         -0.6088   -1.6833   -0.0712 C.3       1 <0>         0.0000
      6 C6         -2.1441   -1.5776   -0.1609 C.3       1 <0>         0.0000
      7 C7          1.8597    4.8591    0.7574 C.3       1 <0>         0.0000
      8 C8          1.7176    3.9305   -0.4350 C.3       1 <0>         0.0000
      9 O1          1.2325    1.8610   -2.0664 O.2       1 <0>         0.0000
     10 O2          0.0709   -0.7528   -2.2780 O.3       1 <0>         0.0000
     11 O3          1.1894    2.6752    0.0564 O.3       1 <0>         0.0000
     12 S1          0.2099    0.3760    1.5121 S.3       1 <0>         0.0000
     13 H1         -0.7671   -1.7686    2.1218 H         1 <0>         0.0000
     14 H2          0.8882   -1.9482    1.4887 H         1 <0>         0.0000
     15 H3         -0.2969   -2.6814   -0.4100 H         1 <0>         0.0000
     16 H4         -2.4802   -0.6153    0.2362 H         1 <0>         0.0000
     17 H5         -2.6174   -2.3779    0.4169 H         1 <0>         0.0000
     18 H6         -2.4909   -1.6574   -1.1964 H         1 <0>         0.0000
     19 H7          0.8909    5.0314    1.2355 H         1 <0>         0.0000
     20 H8          2.5415    4.4366    1.5014 H         1 <0>         0.0000
     21 H9          2.2601    5.8237    0.4286 H         1 <0>         0.0000
     22 H10         2.6773    3.7397   -0.9242 H         1 <0>         0.0000
     23 H11         1.0321    4.3298   -1.1882 H         1 <0>         0.0000
     24 H12        -0.2171   -1.6514   -2.5053 H         1 <0>         0.0000
@<TRIPOS>BOND
     1    1    2 2
     2    1    3 1
     3    1   12 1
     4    2    5 1
     5    2   10 1
     6    3    9 2
     7    3   11 1
     8    4    5 1
     9    4   12 1
    10    4   13 1
    11    4   14 1
    12    5    6 1
    13    5   15 1
    14    6   16 1
    15    6   17 1
    16    6   18 1
    17    7    8 1
    18    7   19 1
    19    7   20 1
    20    7   21 1
    21    8   11 1
    22    8   22 1
    23    8   23 1
    24   10   24 1
