@<TRIPOS>MOLECULE
*****
   48    51     0     0     0
SMALL
NO_CHARGES

@<TRIPOS>ATOM
      1 C1          4.0466   -2.6162   -3.0839 C.ar      1 <0>         0.0000
      2 C2          3.6057   -4.8113   -2.1841 C.ar      1 <0>         0.0000
      3 C3          2.3610   -3.2931    0.1223 C.ar      1 <0>         0.0000
      4 C4          1.5799   -1.7468   -1.5523 C.ar      1 <0>         0.0000
      5 C5          5.0261   -3.1505   -3.9189 C.ar      1 <0>         0.0000
      6 C6          4.5867   -5.3571   -3.0119 C.ar      1 <0>         0.0000
      7 C7          1.5300   -2.7044    1.0760 C.ar      1 <0>         0.0000
      8 C8          0.7362   -1.1523   -0.6154 C.ar      1 <0>         0.0000
      9 C9          7.7551   -1.8286   -2.3491 C.ar      1 <0>         0.0000
     10 C10         7.0181   -3.7902   -1.1261 C.ar      1 <0>         0.0000
     11 C11         0.6094    0.3514    4.4691 C.ar      1 <0>         0.0000
     12 C12         0.7415   -1.3541    6.1972 C.ar      1 <0>         0.0000
     13 C13         7.0430   -1.0085   -1.4711 C.ar      1 <0>         0.0000
     14 C14         6.2941   -2.9726   -0.2578 C.ar      1 <0>         0.0000
     15 C15         0.9282    1.3275    5.4169 C.ar      1 <0>         0.0000
     16 C16         1.0692   -0.3792    7.1415 C.ar      1 <0>         0.0000
     17 C17         3.3442   -3.4290   -2.1785 C.ar      1 <0>         0.0000
     18 C18         2.4068   -2.8283   -1.2027 C.ar      1 <0>         0.0000
     19 C19         5.3175   -4.5108   -3.8455 C.ar      1 <0>         0.0000
     20 C20         0.7188   -1.6350    0.6941 C.ar      1 <0>         0.0000
     21 C21         7.7148   -3.2143   -2.1891 C.ar      1 <0>         0.0000
     22 C22         0.5129   -0.9826    4.8712 C.ar      1 <0>         0.0000
     23 C23         6.2948   -1.5894   -0.4454 C.ar      1 <0>         0.0000
     24 C24         1.1566    0.9566    6.7433 C.ar      1 <0>         0.0000
     25 O1          6.4143   -4.9833   -4.5892 O.3       1 <0>         0.0000
     26 O2         -0.1049   -0.9435    1.5928 O.3       1 <0>         0.0000
     27 O3          8.3916   -3.9575   -3.1714 O.3       1 <0>         0.0000
     28 O4          0.2473   -2.0258    3.9767 O.3       1 <0>         0.0000
     29 S1          7.7410   -5.4361   -3.6490 S.3       1 <0>         0.0000
     30 S2         -0.9186   -1.8002    2.7849 S.3       1 <0>         0.0000
     31 Cl1         5.3180   -0.5778    0.6045 Cl        1 <0>         0.0000
     32 Cl2         1.5641    2.1871    7.9289 Cl        1 <0>         0.0000
     33 H1          3.8821   -1.5429   -3.0821 H         1 <0>         0.0000
     34 H2          3.0374   -5.4672   -1.5305 H         1 <0>         0.0000
     35 H3          3.0172   -4.1030    0.4280 H         1 <0>         0.0000
     36 H4          1.5735   -1.3826   -2.5758 H         1 <0>         0.0000
     37 H5          5.6170   -2.5160   -4.5714 H         1 <0>         0.0000
     38 H6          4.8107   -6.4196   -2.9881 H         1 <0>         0.0000
     39 H7          1.5337   -3.0534    2.1027 H         1 <0>         0.0000
     40 H8          0.0863   -0.3253   -0.8854 H         1 <0>         0.0000
     41 H9          8.3121   -1.4068   -3.1800 H         1 <0>         0.0000
     42 H10         6.9907   -4.8673   -1.0065 H         1 <0>         0.0000
     43 H11         0.4488    0.6272    3.4327 H         1 <0>         0.0000
     44 H12         0.6598   -2.3993    6.4795 H         1 <0>         0.0000
     45 H13         7.0473    0.0690   -1.6014 H         1 <0>         0.0000
     46 H14         5.7177   -3.4100    0.5506 H         1 <0>         0.0000
     47 H15         1.0087    2.3688    5.1215 H         1 <0>         0.0000
     48 H16         1.2468   -0.6537    8.1763 H         1 <0>         0.0000
@<TRIPOS>BOND
     1    1    5 ar
     2    1   17 ar
     3    1   33 1
     4    2    6 ar
     5    2   17 ar
     6    2   34 1
     7    3    7 ar
     8    3   18 ar
     9    3   35 1
    10    4    8 ar
    11    4   18 ar
    12    4   36 1
    13    5   19 ar
    14    5   37 1
    15    6   19 ar
    16    6   38 1
    17    7   20 ar
    18    7   39 1
    19    8   20 ar
    20    8   40 1
    21    9   13 ar
    22    9   21 ar
    23    9   41 1
    24   10   14 ar
    25   10   21 ar
    26   10   42 1
    27   11   15 ar
    28   11   22 ar
    29   11   43 1
    30   12   16 ar
    31   12   22 ar
    32   12   44 1
    33   13   23 ar
    34   13   45 1
    35   14   23 ar
    36   14   46 1
    37   15   24 ar
    38   15   47 1
    39   16   24 ar
    40   16   48 1
    41   17   18 1
    42   19   25 1
    43   20   26 1
    44   21   27 1
    45   22   28 1
    46   23   31 1
    47   24   32 1
    48   25   29 1
    49   26   30 1
    50   27   29 1
    51   28   30 1
