@<TRIPOS>MOLECULE
*****
   25    26     0     0     0
SMALL
NO_CHARGES

@<TRIPOS>ATOM
      1 C1          6.7931   -0.5061    2.4360 C.ar      1 <0>         0.0000
      2 C2          6.5372    0.1203    3.6585 C.ar      1 <0>         0.0000
      3 C3          5.8585   -0.3736    1.4097 C.ar      1 <0>         0.0000
      4 C4          0.8065   -0.7673    0.9422 C.ar      1 <0>         0.0000
      5 C5          1.2355    0.3633    3.0152 C.ar      1 <0>         0.0000
      6 C6          5.3554    0.8573    3.8005 C.ar      1 <0>         0.0000
      7 C7         -0.0149   -1.6446    1.6470 C.ar      1 <0>         0.0000
      8 C8          1.4477    0.2693    1.6378 C.ar      1 <0>         0.0000
      9 C9          4.7044    0.3826    1.6516 C.ar      1 <0>         0.0000
     10 C10         0.3846   -0.5752    3.6063 C.ar      1 <0>         0.0000
     11 C11         3.6753    0.5272    0.5634 C.2       1 <0>         0.0000
     12 C12         2.3681    1.2327    0.9153 C.3       1 <0>         0.0000
     13 N1          4.4533    0.9921    2.8233 N.ar      1 <0>         0.0000
     14 N2         -0.2309   -1.5542    2.9716 N.ar      1 <0>         0.0000
     15 O1          3.8685    0.0599   -0.5501 O.2       1 <0>         0.0000
     16 Br1         0.0764   -0.4433    5.5089 Br        1 <0>         0.0000
     17 H1          7.7001   -1.0862    2.2884 H         1 <0>         0.0000
     18 H2          7.2335    0.0434    4.4886 H         1 <0>         0.0000
     19 H3          5.9934   -0.8360    0.4375 H         1 <0>         0.0000
     20 H4          0.9500   -0.8895   -0.1276 H         1 <0>         0.0000
     21 H5          1.7256    1.1279    3.6055 H         1 <0>         0.0000
     22 H6          5.1271    1.3571    4.7403 H         1 <0>         0.0000
     23 H7         -0.5271   -2.4579    1.1369 H         1 <0>         0.0000
     24 H8          1.9157    1.5521   -0.0261 H         1 <0>         0.0000
     25 H9          2.5686    2.0997    1.5458 H         1 <0>         0.0000
@<TRIPOS>BOND
     1    1    2 ar
     2    1    3 ar
     3    1   17 1
     4    2    6 ar
     5    2   18 1
     6    3    9 ar
     7    3   19 1
     8    4    7 ar
     9    4    8 ar
    10    4   20 1
    11    5    8 ar
    12    5   10 ar
    13    5   21 1
    14    6   13 ar
    15    6   22 1
    16    7   14 ar
    17    7   23 1
    18    8   12 1
    19    9   11 1
    20    9   13 ar
    21   10   14 ar
    22   10   16 1
    23   11   12 1
    24   11   15 2
    25   12   24 1
    26   12   25 1
