@<TRIPOS>MOLECULE
*****
   18    19     0     0     0
SMALL
NO_CHARGES

@<TRIPOS>ATOM
      1 C1          0.1742   -0.4741   -1.0805 C.ar      1 <0>         0.0000
      2 C2         -0.6615   -1.5049   -1.5011 C.ar      1 <0>         0.0000
      3 C3          1.4924   -0.6196   -3.1403 C.ar      1 <0>         0.0000
      4 C4         -0.1434   -3.2342   -4.8934 C.2       1 <0>         0.0000
      5 C5          0.6541   -1.6595   -3.5715 C.ar      1 <0>         0.0000
      6 C6          1.2332   -0.0548   -1.9021 C.ar      1 <0>         0.0000
      7 C7         -0.4150   -2.0940   -2.7470 C.ar      1 <0>         0.0000
      8 C8          3.1192    0.7432   -0.7340 C.3       1 <0>         0.0000
      9 N1          0.7769   -2.3301   -4.7823 N.2       1 <0>         0.0000
     10 O1          2.0203    1.0355   -1.4735 O.3       1 <0>         0.0000
     11 F1          2.8159    0.1024    0.4206 F         1 <0>         0.0000
     12 F2          3.7251    1.8962   -0.4287 F         1 <0>         0.0000
     13 F3          4.0011   -0.0415   -1.3950 F         1 <0>         0.0000
     14 S1         -1.2748   -3.3895   -3.5493 S.3       1 <0>         0.0000
     15 H1          0.0191    0.0146   -0.1245 H         1 <0>         0.0000
     16 H2         -1.4829   -1.8345   -0.8723 H         1 <0>         0.0000
     17 H3          2.3119   -0.2725   -3.7601 H         1 <0>         0.0000
     18 H4         -0.2452   -3.8847   -5.7567 H         1 <0>         0.0000
@<TRIPOS>BOND
     1    1    2 ar
     2    1    6 ar
     3    1   15 1
     4    2    7 ar
     5    2   16 1
     6    3    5 ar
     7    3    6 ar
     8    3   17 1
     9    4    9 2
    10    4   14 1
    11    4   18 1
    12    5    7 ar
    13    5    9 1
    14    6   10 1
    15    7   14 1
    16    8   10 1
    17    8   11 1
    18    8   12 1
    19    8   13 1
