@<TRIPOS>MOLECULE
*****
   30    31     0     0     0
SMALL
NO_CHARGES

@<TRIPOS>ATOM
      1 C1          4.9351    1.1126   -0.9590 C.ar      1 <0>         0.0000
      2 C2          2.3518   -2.2504    2.1833 C.ar      1 <0>         0.0000
      3 C3          1.6118   -0.6703    0.4845 C.ar      1 <0>         0.0000
      4 C4          5.0327    2.4782   -0.7215 C.ar      1 <0>         0.0000
      5 C5          1.2200   -1.9661    2.9453 C.ar      1 <0>         0.0000
      6 C6          0.4653   -0.4070    1.2286 C.ar      1 <0>         0.0000
      7 C7          4.3352    0.7320    1.3604 C.ar      1 <0>         0.0000
      8 C8          2.5660   -1.5787    0.9718 C.ar      1 <0>         0.0000
      9 C9          4.5447    0.2343    0.0645 C.ar      1 <0>         0.0000
     10 C10         4.8049    2.9913    0.5634 C.ar      1 <0>         0.0000
     11 C11         0.2861   -1.0496    2.4568 C.ar      1 <0>         0.0000
     12 C12         4.4771    2.0929    1.5973 C.ar      1 <0>         0.0000
     13 N1          3.6948   -1.9703    0.1820 N.2       1 <0>         0.0000
     14 N2          4.5232   -1.1531   -0.2849 N.2       1 <0>         0.0000
     15 N3         -2.2934   -1.8570    2.8724 N.pl3     1 <0>         0.0000
     16 O1         -0.8840   -1.0190    4.8199 O.2       1 <0>         0.0000
     17 O2         -1.6891    0.6118    2.9979 O.2       1 <0>         0.0000
     18 O3          4.9343    4.3294    0.7525 O.3       1 <0>         0.0000
     19 S1         -1.1808   -0.6964    3.4211 S.o2      1 <0>         0.0000
     20 Cl1         4.2412    2.7297    3.2209 Cl        1 <0>         0.0000
     21 H1          5.1459    0.7047   -1.9430 H         1 <0>         0.0000
     22 H2          3.0854   -2.9746    2.5256 H         1 <0>         0.0000
     23 H3          1.7750   -0.1706   -0.4651 H         1 <0>         0.0000
     24 H4          5.3079    3.1718   -1.5100 H         1 <0>         0.0000
     25 H5          1.0624   -2.4420    3.9079 H         1 <0>         0.0000
     26 H6         -0.2728    0.3071    0.8776 H         1 <0>         0.0000
     27 H7          4.0836    0.0743    2.1831 H         1 <0>         0.0000
     28 H8         -2.5703   -2.4546    3.6503 H         1 <0>         0.0000
     29 H9         -3.1005   -1.3855    2.4660 H         1 <0>         0.0000
     30 H10         4.7596    4.5399    1.6878 H         1 <0>         0.0000
@<TRIPOS>BOND
     1    1    4 ar
     2    1    9 ar
     3    1   21 1
     4    2    5 ar
     5    2    8 ar
     6    2   22 1
     7    3    6 ar
     8    3    8 ar
     9    3   23 1
    10    4   10 ar
    11    4   24 1
    12    5   11 ar
    13    5   25 1
    14    6   11 ar
    15    6   26 1
    16    7    9 ar
    17    7   12 ar
    18    7   27 1
    19    8   13 1
    20    9   14 1
    21   10   12 ar
    22   10   18 1
    23   11   19 1
    24   12   20 1
    25   13   14 2
    26   15   19 1
    27   15   28 1
    28   15   29 1
    29   16   19 2
    30   17   19 2
    31   18   30 1
