@<TRIPOS>MOLECULE
*****
   41    42     0     0     0
SMALL
NO_CHARGES

@<TRIPOS>ATOM
      1 C1          0.4711    1.1047    1.9004 C.1       1 <0>         0.0000
      2 C2         -4.4442    0.8894   -1.0412 C.ar      1 <0>         0.0000
      3 C3         -4.2092    1.8062    1.1768 C.ar      1 <0>         0.0000
      4 C4         -5.8238    0.7670   -0.8584 C.ar      1 <0>         0.0000
      5 C5         -5.5876    1.6917    1.3820 C.ar      1 <0>         0.0000
      6 C6         -1.7792   -2.4099   -3.1434 C.2       1 <0>         0.0000
      7 C7         -1.5480   -0.3450   -3.4690 C.2       1 <0>         0.0000
      8 C8         -3.6209    1.4132   -0.0330 C.ar      1 <0>         0.0000
      9 C9         -6.3697    1.1736    0.3554 C.ar      1 <0>         0.0000
     10 C10         2.4199    0.2760    0.6833 C.3       1 <0>         0.0000
     11 C11         1.1634    2.2982   -0.1112 C.3       1 <0>         0.0000
     12 C12        -2.1218    1.4911   -0.2236 C.3       1 <0>         0.0000
     13 C13        -1.4650    0.1344    0.0890 C.3       1 <0>         0.0000
     14 C14         0.2916    0.0625   -1.7677 C.3       1 <0>         0.0000
     15 C15         1.0093    0.8987    0.5390 C.3       1 <0>         0.0000
     16 C16         0.0307   -0.0683   -0.2440 C.3       1 <0>         0.0000
     17 N1          0.0582    1.3145    2.9670 N.1       1 <0>         0.0000
     18 N2         -2.2814   -1.3749   -3.8741 N.2       1 <0>         0.0000
     19 N3         -0.7844   -2.0797   -2.3238 N.2       1 <0>         0.0000
     20 N4         -0.6414   -0.7410   -2.5473 N.pl3     1 <0>         0.0000
     21 O1          0.3873   -1.3846    0.1762 O.3       1 <0>         0.0000
     22 F1         -7.7117    1.0608    0.5430 F         1 <0>         0.0000
     23 H1         -4.0074    0.5650   -1.9834 H         1 <0>         0.0000
     24 H2         -3.5837    2.2035    1.9728 H         1 <0>         0.0000
     25 H3         -6.4689    0.3664   -1.6344 H         1 <0>         0.0000
     26 H4         -6.0528    1.9954    2.3148 H         1 <0>         0.0000
     27 H5         -2.1454   -3.4258   -3.2127 H         1 <0>         0.0000
     28 H6         -1.6310    0.6778   -3.8140 H         1 <0>         0.0000
     29 H7          2.8488    0.0824   -0.3039 H         1 <0>         0.0000
     30 H8          2.3835   -0.6634    1.2316 H         1 <0>         0.0000
     31 H9          3.0741    0.9772    1.2090 H         1 <0>         0.0000
     32 H10         1.7507    2.2249   -1.0305 H         1 <0>         0.0000
     33 H11         0.2080    2.7706   -0.3399 H         1 <0>         0.0000
     34 H12         1.7065    2.9565    0.5711 H         1 <0>         0.0000
     35 H13        -1.7182    2.2649    0.4344 H         1 <0>         0.0000
     36 H14        -1.9046    1.7977   -1.2536 H         1 <0>         0.0000
     37 H15        -2.0181   -0.6448   -0.4439 H         1 <0>         0.0000
     38 H16        -1.5935   -0.0887    1.1504 H         1 <0>         0.0000
     39 H17         1.3097   -0.2644   -1.9922 H         1 <0>         0.0000
     40 H18         0.1690    1.0877   -2.1148 H         1 <0>         0.0000
     41 H19        -0.0561   -2.0179   -0.4239 H         1 <0>         0.0000
@<TRIPOS>BOND
     1    1   15 1
     2    1   17 3
     3    2    4 ar
     4    2    8 ar
     5    2   23 1
     6    3    5 ar
     7    3    8 ar
     8    3   24 1
     9    4    9 ar
    10    4   25 1
    11    5    9 ar
    12    5   26 1
    13    6   18 1
    14    6   19 2
    15    6   27 1
    16    7   18 2
    17    7   20 1
    18    7   28 1
    19    8   12 1
    20    9   22 1
    21   10   15 1
    22   10   29 1
    23   10   30 1
    24   10   31 1
    25   11   15 1
    26   11   32 1
    27   11   33 1
    28   11   34 1
    29   12   13 1
    30   12   35 1
    31   12   36 1
    32   13   16 1
    33   13   37 1
    34   13   38 1
    35   14   16 1
    36   14   20 1
    37   14   39 1
    38   14   40 1
    39   15   16 1
    40   16   21 1
    41   19   20 1
    42   21   41 1
