@<TRIPOS>MOLECULE
*****
   48    50     0     0     0
SMALL
NO_CHARGES

@<TRIPOS>ATOM
      1 C1         -3.3921   -1.5799    0.1270 C.ar      1 <0>         0.0000
      2 C2          3.3212   -2.0040    0.4591 C.ar      1 <0>         0.0000
      3 C3         -2.1415   -1.6252   -0.4983 C.ar      1 <0>         0.0000
      4 C4          2.1362   -1.9220   -0.2828 C.ar      1 <0>         0.0000
      5 C5         -3.1162    0.7805    0.4768 C.ar      1 <0>         0.0000
      6 C6          2.1115    0.4871    0.0672 C.ar      1 <0>         0.0000
      7 C7         -1.8692    0.7580   -0.1508 C.ar      1 <0>         0.0000
      8 C8         -3.9005   -0.3750    0.6224 C.ar      1 <0>         0.0000
      9 C9          3.9037   -0.8690    1.0099 C.ar      1 <0>         0.0000
     10 C10         3.2934    0.3933    0.8125 C.ar      1 <0>         0.0000
     11 C11         1.5266   -0.6864   -0.4674 C.ar      1 <0>         0.0000
     12 C12        -1.3705   -0.4692   -0.6425 C.ar      1 <0>         0.0000
     13 C13         1.3418    1.7340   -0.2597 C.2       1 <0>         0.0000
     14 C14         6.4952   -1.9743    4.8202 C.2       1 <0>         0.0000
     15 C15         6.0672   -0.8575    4.2086 C.2       1 <0>         0.0000
     16 C16        -1.0473    2.0201   -0.2375 C.3       1 <0>         0.0000
     17 C17        -5.2387   -0.3114    1.3203 C.3       1 <0>         0.0000
     18 C18         6.8238    0.4455    4.2889 C.3       1 <0>         0.0000
     19 C19         3.3796    2.7354    1.5011 C.3       1 <0>         0.0000
     20 C20         4.8184   -0.8537    3.3583 C.3       1 <0>         0.0000
     21 C21         5.1594   -0.9616    1.8482 C.3       1 <0>         0.0000
     22 O1          1.6290    2.5652   -1.0918 O.2       1 <0>         0.0000
     23 O2          0.1894    1.7390    0.4683 O.3       1 <0>         0.0000
     24 O3          5.8036   -2.2036    1.5678 O.3       1 <0>         0.0000
     25 O4          3.9550    1.4294    1.4154 O.3       1 <0>         0.0000
     26 S1          0.1390   -0.5765   -1.6269 S.3       1 <0>         0.0000
     27 H1         -3.9733   -2.4938    0.2261 H         1 <0>         0.0000
     28 H2          3.8145   -2.9583    0.6066 H         1 <0>         0.0000
     29 H3         -1.7619   -2.5655   -0.8875 H         1 <0>         0.0000
     30 H4          1.6995   -2.8096   -0.7292 H         1 <0>         0.0000
     31 H5         -3.4894    1.7256    0.8685 H         1 <0>         0.0000
     32 H6          5.9247   -2.8996    4.7760 H         1 <0>         0.0000
     33 H7          7.4102   -1.9880    5.4084 H         1 <0>         0.0000
     34 H8         -0.8102    2.3053   -1.2652 H         1 <0>         0.0000
     35 H9         -1.5435    2.8547    0.2616 H         1 <0>         0.0000
     36 H10        -5.1104   -0.1718    2.4002 H         1 <0>         0.0000
     37 H11        -5.8398    0.5269    0.9531 H         1 <0>         0.0000
     38 H12        -5.8115   -1.2303    1.1700 H         1 <0>         0.0000
     39 H13         7.0646    0.8287    3.2903 H         1 <0>         0.0000
     40 H14         7.7552    0.3429    4.8520 H         1 <0>         0.0000
     41 H15         6.2081    1.2116    4.7763 H         1 <0>         0.0000
     42 H16         4.0161    3.2844    2.1970 H         1 <0>         0.0000
     43 H17         2.3613    2.6924    1.9028 H         1 <0>         0.0000
     44 H18         3.3769    3.2343    0.5297 H         1 <0>         0.0000
     45 H19         4.2528    0.0687    3.5187 H         1 <0>         0.0000
     46 H20         4.1734   -1.7005    3.6120 H         1 <0>         0.0000
     47 H21         5.8215   -0.1302    1.5752 H         1 <0>         0.0000
     48 H22         6.4778   -2.3339    2.2575 H         1 <0>         0.0000
@<TRIPOS>BOND
     1    1    3 ar
     2    1    8 ar
     3    1   27 1
     4    2    4 ar
     5    2    9 ar
     6    2   28 1
     7    3   12 ar
     8    3   29 1
     9    4   11 ar
    10    4   30 1
    11    5    7 ar
    12    5    8 ar
    13    5   31 1
    14    6   10 ar
    15    6   11 ar
    16    6   13 1
    17    7   12 ar
    18    7   16 1
    19    8   17 1
    20    9   10 ar
    21    9   21 1
    22   10   25 1
    23   11   26 1
    24   12   26 1
    25   13   22 2
    26   13   23 1
    27   14   15 2
    28   14   32 1
    29   14   33 1
    30   15   18 1
    31   15   20 1
    32   16   23 1
    33   16   34 1
    34   16   35 1
    35   17   36 1
    36   17   37 1
    37   17   38 1
    38   18   39 1
    39   18   40 1
    40   18   41 1
    41   19   25 1
    42   19   42 1
    43   19   43 1
    44   19   44 1
    45   20   21 1
    46   20   45 1
    47   20   46 1
    48   21   24 1
    49   21   47 1
    50   24   48 1
