@<TRIPOS>MOLECULE
*****
   19    19     0     0     0
SMALL
NO_CHARGES

@<TRIPOS>ATOM
      1 C1          1.1375   -0.5722   -0.9221 C.ar      1 <0>         0.0000
      2 C2          0.1206    0.0089   -0.1586 C.ar      1 <0>         0.0000
      3 C3          2.2338   -1.1662   -0.2917 C.ar      1 <0>         0.0000
      4 C4          0.1655    0.0016    1.2420 C.ar      1 <0>         0.0000
      5 C5          1.2665   -0.5980    1.8801 C.ar      1 <0>         0.0000
      6 C6          2.2813   -1.1601    1.0968 C.ar      1 <0>         0.0000
      7 C7         -0.9240    0.6272    2.0778 C.3       1 <0>         0.0000
      8 C8          1.3539   -1.8303    3.9174 C.3       1 <0>         0.0000
      9 O1          1.3388   -0.5567    3.2525 O.3       1 <0>         0.0000
     10 F1          3.3580   -1.7134    1.7188 F         1 <0>         0.0000
     11 H1          1.0809   -0.5602   -2.0068 H         1 <0>         0.0000
     12 H2         -0.7276    0.4727   -0.6559 H         1 <0>         0.0000
     13 H3          3.0486   -1.6169   -0.8503 H         1 <0>         0.0000
     14 H4         -1.3651   -0.1018    2.7652 H         1 <0>         0.0000
     15 H5         -0.5286    1.4410    2.6939 H         1 <0>         0.0000
     16 H6         -1.7184    1.0270    1.4425 H         1 <0>         0.0000
     17 H7          1.2877   -1.6115    4.9848 H         1 <0>         0.0000
     18 H8          2.2770   -2.3790    3.7110 H         1 <0>         0.0000
     19 H9          0.4898   -2.4330    3.6123 H         1 <0>         0.0000
@<TRIPOS>BOND
     1    1    2 ar
     2    1    3 ar
     3    1   11 1
     4    2    4 ar
     5    2   12 1
     6    3    6 ar
     7    3   13 1
     8    4    5 ar
     9    4    7 1
    10    5    6 ar
    11    5    9 1
    12    6   10 1
    13    7   14 1
    14    7   15 1
    15    7   16 1
    16    8    9 1
    17    8   17 1
    18    8   18 1
    19    8   19 1
