@<TRIPOS>MOLECULE
*****
   39    40     0     0     0
SMALL
NO_CHARGES

@<TRIPOS>ATOM
      1 C1          5.2639   -7.9666   -7.7004 C.ar      1 <0>         0.0000
      2 C2          5.8046   -6.7278   -8.0593 C.ar      1 <0>         0.0000
      3 C3          4.2968   -8.0214   -6.6872 C.ar      1 <0>         0.0000
      4 C4          5.3875   -5.5642   -7.4034 C.ar      1 <0>         0.0000
      5 C5          3.8797   -6.8591   -6.0363 C.ar      1 <0>         0.0000
      6 C6          4.4280   -5.6096   -6.3803 C.ar      1 <0>         0.0000
      7 C7          2.4140   -4.0450   -6.1748 C.2       1 <0>         0.0000
      8 C8          4.0211   -4.3547   -4.2283 C.2       1 <0>         0.0000
      9 C9         -0.1387   -2.9233   -0.3888 C.3       1 <0>         0.0000
     10 C10         0.8112   -1.7449   -0.1275 C.3       1 <0>         0.0000
     11 C11        -0.0396   -3.4029   -1.8441 C.3       1 <0>         0.0000
     12 C12         2.2550   -2.0870   -0.5252 C.3       1 <0>         0.0000
     13 C13         1.4026   -3.7486   -2.2365 C.3       1 <0>         0.0000
     14 C14         2.3470   -2.5618   -1.9859 C.3       1 <0>         0.0000
     15 C15         3.7993   -2.8808   -2.3419 C.3       1 <0>         0.0000
     16 C16         3.9580   -4.3416   -5.7282 C.3       1 <0>         0.0000
     17 O1          1.5492   -4.5950   -5.4499 O.co2     1 <0>         0.0000
     18 O2          2.3185   -3.3300   -7.1912 O.co2     1 <0>         0.0000
     19 O3          4.0919   -5.3194   -3.4867 O.2       1 <0>         0.0000
     20 O4          3.9596   -3.0669   -3.7586 O.3       1 <0>         0.0000
     21 H1          5.5848   -8.8753   -8.2064 H         1 <0>         0.0000
     22 H2          6.5489   -6.6654   -8.8514 H         1 <0>         0.0000
     23 H3          3.8595   -8.9787   -6.4085 H         1 <0>         0.0000
     24 H4          5.8032   -4.6016   -7.6941 H         1 <0>         0.0000
     25 H5          3.1177   -6.8973   -5.2665 H         1 <0>         0.0000
     26 H6         -1.1703   -2.6379   -0.1420 H         1 <0>         0.0000
     27 H7          0.1282   -3.7526    0.2828 H         1 <0>         0.0000
     28 H8          0.4760   -0.8778   -0.7144 H         1 <0>         0.0000
     29 H9          0.7701   -1.4449    0.9283 H         1 <0>         0.0000
     30 H10        -0.6852   -4.2748   -2.0031 H         1 <0>         0.0000
     31 H11        -0.4143   -2.6157   -2.5131 H         1 <0>         0.0000
     32 H12         2.9039   -1.2145   -0.3661 H         1 <0>         0.0000
     33 H13         2.6309   -2.8828    0.1354 H         1 <0>         0.0000
     34 H14         1.7493   -4.6060   -1.6415 H         1 <0>         0.0000
     35 H15         1.4397   -4.0544   -3.2863 H         1 <0>         0.0000
     36 H16         2.0313   -1.7327   -2.6361 H         1 <0>         0.0000
     37 H17         4.1478   -3.7723   -1.8131 H         1 <0>         0.0000
     38 H18         4.4468   -2.0345   -2.0841 H         1 <0>         0.0000
     39 H19         4.5336   -3.4894   -6.0915 H         1 <0>         0.0000
@<TRIPOS>BOND
     1    1    3 ar
     2    1    2 ar
     3    1   21 1
     4    2    4 ar
     5    2   22 1
     6    3    5 ar
     7    3   23 1
     8    4    6 ar
     9    4   24 1
    10    5    6 ar
    11    5   25 1
    12    6   16 1
    13    7   16 1
    14    7   17 1
    15    7   18 2
    16    8   16 1
    17    8   19 2
    18    8   20 1
    19    9   11 1
    20    9   10 1
    21    9   26 1
    22    9   27 1
    23   10   12 1
    24   10   28 1
    25   10   29 1
    26   11   13 1
    27   11   30 1
    28   11   31 1
    29   12   14 1
    30   12   32 1
    31   12   33 1
    32   13   14 1
    33   13   34 1
    34   13   35 1
    35   14   15 1
    36   14   36 1
    37   15   20 1
    38   15   37 1
    39   15   38 1
    40   16   39 1
