@<TRIPOS>MOLECULE
*****
   33    35     0     0     0
SMALL
NO_CHARGES

@<TRIPOS>ATOM
      1 C1          3.1978   -1.5684    2.0624 C.ar      1 <0>         0.0000
      2 C2          2.0509   -1.1007    2.6820 C.ar      1 <0>         0.0000
      3 C3          3.1813   -1.9057    0.6970 C.ar      1 <0>         0.0000
      4 C4         -3.5912    1.1354    5.4569 C.ar      1 <0>         0.0000
      5 C5         -4.0588    1.5700    6.6789 C.ar      1 <0>         0.0000
      6 C6          0.8465   -0.9544    1.9556 C.ar      1 <0>         0.0000
      7 C7          2.0032   -1.7656   -0.0259 C.ar      1 <0>         0.0000
      8 C8          0.8236   -1.2892    0.5930 C.ar      1 <0>         0.0000
      9 C9         -2.2385    0.7483    5.3897 C.ar      1 <0>         0.0000
     10 C10        -3.1575    1.5948    7.7614 C.ar      1 <0>         0.0000
     11 C11        -1.6613    0.2711    4.1174 C.2       1 <0>         0.0000
     12 C12        -0.3193   -0.4557    2.6780 C.2       1 <0>         0.0000
     13 C13        -3.5795    2.0543    9.1317 C.3       1 <0>         0.0000
     14 C14         2.9623   -2.5416   -2.0873 C.3       1 <0>         0.0000
     15 N1         -1.4193    0.7890    6.4465 N.ar      1 <0>         0.0000
     16 N2         -1.8791    1.2108    7.6263 N.ar      1 <0>         0.0000
     17 N3         -0.3586   -0.1256    3.9469 N.2       1 <0>         0.0000
     18 N4         -2.4006    0.1972    3.0263 N.2       1 <0>         0.0000
     19 O1         -1.5127   -0.2874    2.0593 O.3       1 <0>         0.0000
     20 O2         -0.3081   -1.1661   -0.1480 O.3       1 <0>         0.0000
     21 O3          1.8345   -2.0540   -1.3619 O.3       1 <0>         0.0000
     22 H1          4.1172   -1.6772    2.6293 H         1 <0>         0.0000
     23 H2          2.0471   -0.8365    3.7336 H         1 <0>         0.0000
     24 H3          4.0841   -2.2712    0.2200 H         1 <0>         0.0000
     25 H4         -4.2200    1.0860    4.5737 H         1 <0>         0.0000
     26 H5         -5.0905    1.8858    6.8123 H         1 <0>         0.0000
     27 H6         -4.3961    1.4343    9.5179 H         1 <0>         0.0000
     28 H7         -2.7335    1.9926    9.8179 H         1 <0>         0.0000
     29 H8         -3.9390    3.0890    9.1035 H         1 <0>         0.0000
     30 H9          2.6158   -2.7022   -3.1086 H         1 <0>         0.0000
     31 H10         3.3182   -3.4894   -1.6672 H         1 <0>         0.0000
     32 H11         3.7756   -1.8069   -2.0870 H         1 <0>         0.0000
     33 H12        -0.0897   -1.4523   -1.0544 H         1 <0>         0.0000
@<TRIPOS>BOND
     1    1    2 ar
     2    1    3 ar
     3    1   22 1
     4    2    6 ar
     5    2   23 1
     6    3    7 ar
     7    3   24 1
     8    4    5 ar
     9    4    9 ar
    10    4   25 1
    11    5   10 ar
    12    5   26 1
    13    6    8 ar
    14    6   12 1
    15    7    8 ar
    16    7   21 1
    17    8   20 1
    18    9   11 1
    19    9   15 ar
    20   10   13 1
    21   10   16 ar
    22   11   17 1
    23   11   18 2
    24   12   17 2
    25   12   19 1
    26   13   27 1
    27   13   28 1
    28   13   29 1
    29   14   21 1
    30   14   30 1
    31   14   31 1
    32   14   32 1
    33   15   16 ar
    34   18   19 1
    35   20   33 1
