@<TRIPOS>MOLECULE
*****
   47    50     0     0     0
SMALL
NO_CHARGES

@<TRIPOS>ATOM
      1 C1          5.3070   -3.4418   -5.5224 C.1       1 <0>         0.0000
      2 C2          4.0263   -6.2779   -3.4988 C.ar      1 <0>         0.0000
      3 C3          3.5332   -5.6159   -2.3667 C.ar      1 <0>         0.0000
      4 C4          4.6040   -5.5327   -4.5219 C.ar      1 <0>         0.0000
      5 C5          3.6174   -4.2306   -2.2623 C.ar      1 <0>         0.0000
      6 C6          4.6337   -0.9381   -3.9096 C.2       1 <0>         0.0000
      7 C7          4.3849    0.2444   -3.1428 C.2       1 <0>         0.0000
      8 C8          4.6947   -4.1321   -4.4250 C.ar      1 <0>         0.0000
      9 C9          4.1981   -3.4499   -3.2837 C.ar      1 <0>         0.0000
     10 C10         4.2545   -2.0041   -3.1246 C.2       1 <0>         0.0000
     11 C11         3.8791   -0.1626   -1.9373 C.2       1 <0>         0.0000
     12 C12        -0.3641    1.7030    0.4618 C.3       1 <0>         0.0000
     13 C13         0.2318    1.6863   -0.9699 C.3       1 <0>         0.0000
     14 C14        -0.3249   -0.7765    1.0855 C.3       1 <0>         0.0000
     15 C15         1.8072    0.6447    1.0782 C.3       1 <0>         0.0000
     16 C16         0.1164   -0.8512   -1.3331 C.3       1 <0>         0.0000
     17 C17         0.2985    0.6195    1.3328 C.3       1 <0>         0.0000
     18 C18         1.0171    0.3911   -1.2507 C.3       1 <0>         0.0000
     19 C19        -1.6593   -2.1575   -0.3774 C.3       1 <0>         0.0000
     20 C20         3.4302    0.5710   -0.7161 C.3       1 <0>         0.0000
     21 N1          5.8072   -2.9097   -6.4315 N.1       1 <0>         0.0000
     22 N2         -0.8747   -0.9365   -0.2615 N.3       1 <0>         0.0000
     23 N3          2.1035    0.1675   -0.2728 N.3       1 <0>         0.0000
     24 O1          3.7971   -1.5254   -1.9133 O.3       1 <0>         0.0000
     25 H1          3.9602   -7.3587   -3.5809 H         1 <0>         0.0000
     26 H2          3.0780   -6.1851   -1.5606 H         1 <0>         0.0000
     27 H3          4.9945   -6.0209   -5.4095 H         1 <0>         0.0000
     28 H4          3.2288   -3.7286   -1.3837 H         1 <0>         0.0000
     29 H5          5.0297   -0.9844   -4.9125 H         1 <0>         0.0000
     30 H6          4.5548    1.2680   -3.4499 H         1 <0>         0.0000
     31 H7         -0.1941    2.6829    0.9224 H         1 <0>         0.0000
     32 H8         -1.4433    1.5379    0.4281 H         1 <0>         0.0000
     33 H9         -0.5563    1.8044   -1.7203 H         1 <0>         0.0000
     34 H10         0.9175    2.5321   -1.1009 H         1 <0>         0.0000
     35 H11         0.4171   -1.5609    1.3290 H         1 <0>         0.0000
     36 H12        -1.1639   -0.9072    1.7781 H         1 <0>         0.0000
     37 H13         2.1650    1.6800    1.2391 H         1 <0>         0.0000
     38 H14         2.3370    0.0098    1.8015 H         1 <0>         0.0000
     39 H15        -0.4351   -0.8279   -2.2818 H         1 <0>         0.0000
     40 H16         0.7815   -1.7338   -1.3569 H         1 <0>         0.0000
     41 H17         0.1453    0.8621    2.3903 H         1 <0>         0.0000
     42 H18         1.4893    0.4783   -2.2339 H         1 <0>         0.0000
     43 H19        -2.1232   -2.2056   -1.3683 H         1 <0>         0.0000
     44 H20        -2.4585   -2.1607    0.3713 H         1 <0>         0.0000
     45 H21        -1.0566   -3.0764   -0.2407 H         1 <0>         0.0000
     46 H22         4.1267    0.3618    0.1066 H         1 <0>         0.0000
     47 H23         3.5151    1.6538   -0.9295 H         1 <0>         0.0000
@<TRIPOS>BOND
     1    1    8 1
     2    1   21 3
     3    2    3 ar
     4    2    4 ar
     5    2   25 1
     6    3    5 ar
     7    3   26 1
     8    4    8 ar
     9    4   27 1
    10    5    9 ar
    11    5   28 1
    12    6    7 1
    13    6   10 2
    14    6   29 1
    15    7   11 2
    16    7   30 1
    17    8    9 ar
    18    9   10 1
    19   10   24 1
    20   11   20 1
    21   11   24 1
    22   12   13 1
    23   12   17 1
    24   12   31 1
    25   12   32 1
    26   13   18 1
    27   13   33 1
    28   13   34 1
    29   14   17 1
    30   14   22 1
    31   14   35 1
    32   14   36 1
    33   15   17 1
    34   15   23 1
    35   15   37 1
    36   15   38 1
    37   16   18 1
    38   16   22 1
    39   16   39 1
    40   16   40 1
    41   17   41 1
    42   18   23 1
    43   18   42 1
    44   19   22 1
    45   19   43 1
    46   19   44 1
    47   19   45 1
    48   20   23 1
    49   20   46 1
    50   20   47 1
