@<TRIPOS>MOLECULE
*****
   49    51     0     0     0
SMALL
NO_CHARGES

@<TRIPOS>ATOM
      1 C1          0.0747    0.3150   -0.5646 C.1       1 <0>         0.0000
      2 C2          3.2782   -5.1601    4.3332 C.ar      1 <0>         0.0000
      3 C3          2.2184   -4.8493    3.4734 C.ar      1 <0>         0.0000
      4 C4          0.3099   -0.4373    1.7601 C.ar      1 <0>         0.0000
      5 C5         -0.1733   -2.0605    0.0023 C.ar      1 <0>         0.0000
      6 C6          0.0753   -0.7413    0.4094 C.ar      1 <0>         0.0000
      7 C7          1.1489   -3.6077    5.2882 C.ar      1 <0>         0.0000
      8 C8          0.3212   -1.4510    2.7217 C.ar      1 <0>         0.0000
      9 C9          3.2982   -4.7097    5.6501 C.ar      1 <0>         0.0000
     10 C10         1.1773   -4.0840    3.9687 C.ar      1 <0>         0.0000
     11 C11         0.0979   -2.7665    2.3028 C.ar      1 <0>         0.0000
     12 C12        -0.1677   -3.0743    0.9579 C.ar      1 <0>         0.0000
     13 C13         2.2262   -3.9265    6.1363 C.ar      1 <0>         0.0000
     14 C14        -0.0927   -2.8766    5.7092 C.2       1 <0>         0.0000
     15 C15         0.5851   -1.1051    4.1684 C.3       1 <0>         0.0000
     16 C16         7.4886   -2.7199    7.5804 C.3       1 <0>         0.0000
     17 C17         6.1269   -4.2094    9.0991 C.3       1 <0>         0.0000
     18 C18         1.6799   -2.3914    7.9633 C.3       1 <0>         0.0000
     19 C19         5.3943   -3.7908    6.6869 C.3       1 <0>         0.0000
     20 C20         4.4684   -5.0155    6.5625 C.3       1 <0>         0.0000
     21 C21         6.5809   -3.9567    7.6536 C.3       1 <0>         0.0000
     22 N1          0.0792    1.1757   -1.3503 N.1       1 <0>         0.0000
     23 O1         -0.8570   -3.2826    6.5546 O.2       1 <0>         0.0000
     24 O2          0.0451   -3.8477    3.1711 O.3       1 <0>         0.0000
     25 O3         -0.3652   -1.6993    5.0764 O.3       1 <0>         0.0000
     26 O4         -0.4094   -4.3590    0.5808 O.3       1 <0>         0.0000
     27 O5          5.1638   -6.1417    6.0094 O.3       1 <0>         0.0000
     28 O6          2.3583   -3.5378    7.4367 O.3       1 <0>         0.0000
     29 H1          4.1029   -5.7721    3.9862 H         1 <0>         0.0000
     30 H2          2.1920   -5.2104    2.4498 H         1 <0>         0.0000
     31 H3          0.4723    0.5947    2.0556 H         1 <0>         0.0000
     32 H4         -0.3691   -2.3029   -1.0367 H         1 <0>         0.0000
     33 H5          1.6035   -1.3799    4.4574 H         1 <0>         0.0000
     34 H6          0.4709   -0.0290    4.3092 H         1 <0>         0.0000
     35 H7          6.9469   -1.8218    7.9015 H         1 <0>         0.0000
     36 H8          8.3632   -2.8313    8.2303 H         1 <0>         0.0000
     37 H9          7.8462   -2.5475    6.5595 H         1 <0>         0.0000
     38 H10         5.5000   -3.3837    9.4565 H         1 <0>         0.0000
     39 H11         5.5453   -5.1311    9.2019 H         1 <0>         0.0000
     40 H12         6.9889   -4.2891    9.7700 H         1 <0>         0.0000
     41 H13         2.2673   -2.0807    8.8290 H         1 <0>         0.0000
     42 H14         0.6624   -2.6390    8.2686 H         1 <0>         0.0000
     43 H15         1.6605   -1.5746    7.2329 H         1 <0>         0.0000
     44 H16         4.7925   -2.9354    7.0136 H         1 <0>         0.0000
     45 H17         5.7698   -3.5598    5.6827 H         1 <0>         0.0000
     46 H18         4.0705   -5.2767    7.5495 H         1 <0>         0.0000
     47 H19         7.1855   -4.8159    7.3256 H         1 <0>         0.0000
     48 H20        -0.4232   -4.9016    1.3916 H         1 <0>         0.0000
     49 H21         5.8942   -6.3606    6.6075 H         1 <0>         0.0000
@<TRIPOS>BOND
     1    1    6 1
     2    1   22 3
     3    2    3 ar
     4    2    9 ar
     5    2   29 1
     6    3   10 ar
     7    3   30 1
     8    4    6 ar
     9    4    8 ar
    10    4   31 1
    11    5    6 ar
    12    5   12 ar
    13    5   32 1
    14    7   10 ar
    15    7   13 ar
    16    7   14 1
    17    8   11 ar
    18    8   15 1
    19    9   13 ar
    20    9   20 1
    21   10   24 1
    22   11   12 ar
    23   11   24 1
    24   12   26 1
    25   13   28 1
    26   14   23 2
    27   14   25 1
    28   15   25 1
    29   15   33 1
    30   15   34 1
    31   16   21 1
    32   16   35 1
    33   16   36 1
    34   16   37 1
    35   17   21 1
    36   17   38 1
    37   17   39 1
    38   17   40 1
    39   18   28 1
    40   18   41 1
    41   18   42 1
    42   18   43 1
    43   19   20 1
    44   19   21 1
    45   19   44 1
    46   19   45 1
    47   20   27 1
    48   20   46 1
    49   21   47 1
    50   26   48 1
    51   27   49 1
