@<TRIPOS>MOLECULE
*****
   53    56     0     0     0
SMALL
NO_CHARGES

@<TRIPOS>ATOM
      1 C1          3.3478    1.8806    2.4081 C.1       1 <0>         0.0000
      2 C2         -1.1146    2.9945   -2.2892 C.ar      1 <0>         0.0000
      3 C3         -0.1893    2.4348   -1.3761 C.ar      1 <0>         0.0000
      4 C4         -2.0832    2.2299   -2.9452 C.ar      1 <0>         0.0000
      5 C5         -1.2012    0.3089   -1.7300 C.ar      1 <0>         0.0000
      6 C6         -0.2217    1.0717   -1.0875 C.ar      1 <0>         0.0000
      7 C7         -1.4568   -1.0907   -1.6145 C.2       1 <0>         0.0000
      8 C8         -2.1146    0.8617   -2.6519 C.ar      1 <0>         0.0000
      9 C9         -2.5033   -1.3786   -2.4615 C.2       1 <0>         0.0000
     10 C10        -0.6412   -1.8718   -0.6273 C.3       1 <0>         0.0000
     11 C11         2.1450    0.8928   -0.1964 C.3       1 <0>         0.0000
     12 C12         3.0766   -1.3790    0.3629 C.3       1 <0>         0.0000
     13 C13         0.7174    0.3254   -0.1431 C.3       1 <0>         0.0000
     14 C14         3.1496    0.1177    0.6692 C.3       1 <0>         0.0000
     15 C15         0.7312   -1.1748   -0.5310 C.3       1 <0>         0.0000
     16 C16         1.2970   -3.4431    3.9784 C.3       1 <0>         0.0000
     17 C17        -3.1624   -4.9839   -2.3439 C.3       1 <0>         0.0000
     18 C18         3.0610    0.4597    2.1784 C.3       1 <0>         0.0000
     19 C19        -3.2206   -2.6616   -2.7472 C.3       1 <0>         0.0000
     20 C20         2.0416   -3.0083    2.7081 C.3       1 <0>         0.0000
     21 C21         1.1002   -2.2404    1.7840 C.3       1 <0>         0.0000
     22 N1          3.5649    3.0133    2.5492 N.1       1 <0>         0.0000
     23 N2         -2.9019   -0.1956   -3.0881 N.pl3     1 <0>         0.0000
     24 N3          1.6724   -1.9626    0.4021 N.4       1 <0>         0.0000
     25 O1         -2.5167   -3.7289   -2.1364 O.3       1 <0>         0.0000
     26 H1         -1.0651    4.0606   -2.4902 H         1 <0>         0.0000
     27 H2          0.5384    3.0935   -0.9115 H         1 <0>         0.0000
     28 H3         -2.7723    2.6906   -3.6473 H         1 <0>         0.0000
     29 H4         -1.1435   -1.8613    0.3465 H         1 <0>         0.0000
     30 H5         -0.5277   -2.9168   -0.9320 H         1 <0>         0.0000
     31 H6          2.4831    0.8764   -1.2387 H         1 <0>         0.0000
     32 H7          2.1442    1.9408    0.1084 H         1 <0>         0.0000
     33 H8          3.4176   -1.5428   -0.6626 H         1 <0>         0.0000
     34 H9          3.7038   -1.9780    1.0225 H         1 <0>         0.0000
     35 H10         0.3216    0.4193    0.8778 H         1 <0>         0.0000
     36 H11         4.1571    0.4117    0.3553 H         1 <0>         0.0000
     37 H12         1.2146   -1.2577   -1.5106 H         1 <0>         0.0000
     38 H13         0.9043   -2.5792    4.5243 H         1 <0>         0.0000
     39 H14         0.4588   -4.1064    3.7438 H         1 <0>         0.0000
     40 H15         1.9729   -3.9804    4.6476 H         1 <0>         0.0000
     41 H16        -2.5576   -5.7410   -1.8416 H         1 <0>         0.0000
     42 H17        -3.2263   -5.2244   -3.4138 H         1 <0>         0.0000
     43 H18        -4.1737   -4.9853   -1.9149 H         1 <0>         0.0000
     44 H19         3.7846   -0.1314    2.7493 H         1 <0>         0.0000
     45 H20         2.0729    0.2559    2.5980 H         1 <0>         0.0000
     46 H21        -4.2529   -2.6137   -2.3608 H         1 <0>         0.0000
     47 H22        -3.2909   -2.8214   -3.8364 H         1 <0>         0.0000
     48 H23         2.4324   -3.8938    2.1900 H         1 <0>         0.0000
     49 H24         2.9014   -2.3952    2.9904 H         1 <0>         0.0000
     50 H25         0.2004   -2.8302    1.6122 H         1 <0>         0.0000
     51 H26         0.7914   -1.2899    2.2142 H         1 <0>         0.0000
     52 H27        -3.6418   -0.1285   -3.7742 H         1 <0>         0.0000
     53 H28         1.7573   -2.8875   -0.0313 H         1 <0>         0.0000
@<TRIPOS>BOND
     1    1   18 1
     2    1   22 3
     3    2    3 ar
     4    2    4 ar
     5    2   26 1
     6    3    6 ar
     7    3   27 1
     8    4    8 ar
     9    4   28 1
    10    5    6 ar
    11    5    7 1
    12    5    8 ar
    13    6   13 1
    14    7    9 2
    15    7   10 1
    16    8   23 1
    17    9   19 1
    18    9   23 1
    19   10   15 1
    20   10   29 1
    21   10   30 1
    22   11   13 1
    23   11   14 1
    24   11   31 1
    25   11   32 1
    26   12   14 1
    27   12   24 1
    28   12   33 1
    29   12   34 1
    30   13   15 1
    31   13   35 1
    32   14   18 1
    33   14   36 1
    34   15   24 1
    35   15   37 1
    36   16   20 1
    37   16   38 1
    38   16   39 1
    39   16   40 1
    40   17   25 1
    41   17   41 1
    42   17   42 1
    43   17   43 1
    44   18   44 1
    45   18   45 1
    46   19   25 1
    47   19   46 1
    48   19   47 1
    49   20   21 1
    50   20   48 1
    51   20   49 1
    52   21   24 1
    53   21   50 1
    54   21   51 1
    55   23   52 1
    56   24   53 1
