@<TRIPOS>MOLECULE
*****
   25    27     0     0     0
SMALL
NO_CHARGES

@<TRIPOS>ATOM
      1 C1          2.0599   -0.2009    0.5412 C.ar      1 <0>         0.0000
      2 C2          0.7214    0.1497    0.7902 C.ar      1 <0>         0.0000
      3 C3          3.0386    0.1658    1.4536 C.ar      1 <0>         0.0000
      4 C4          0.3719    0.8650    1.9288 C.ar      1 <0>         0.0000
      5 C5          3.3297    1.9222    4.7690 C.2       1 <0>         0.0000
      6 C6          2.0201    2.2511    4.9299 C.2       1 <0>         0.0000
      7 C7          2.7145    0.8858    2.6168 C.ar      1 <0>         0.0000
      8 C8          1.3667    1.2499    2.8532 C.ar      1 <0>         0.0000
      9 C9          3.7925    1.2287    3.5791 C.2       1 <0>         0.0000
     10 C10        -1.0371    3.3505    3.4435 C.3       1 <0>         0.0000
     11 C11        -0.6487    3.6801    4.8655 C.3       1 <0>         0.0000
     12 C12        -0.3313    2.3191    4.2941 C.3       1 <0>         0.0000
     13 N1          1.0423    1.9772    4.0044 N.pl3     1 <0>         0.0000
     14 O1          4.9790    0.9314    3.3785 O.2       1 <0>         0.0000
     15 H1          2.3208   -0.7589   -0.3537 H         1 <0>         0.0000
     16 H2         -0.0563   -0.1412    0.0886 H         1 <0>         0.0000
     17 H3          4.0834   -0.0918    1.3079 H         1 <0>         0.0000
     18 H4         -0.6655    1.1219    2.1030 H         1 <0>         0.0000
     19 H5          4.0517    2.1801    5.5360 H         1 <0>         0.0000
     20 H6          1.6697    2.7649    5.8181 H         1 <0>         0.0000
     21 H7         -2.0837    3.1809    3.2086 H         1 <0>         0.0000
     22 H8         -0.4551    3.8100    2.6512 H         1 <0>         0.0000
     23 H9          0.1706    4.3781    5.0030 H         1 <0>         0.0000
     24 H10        -1.4237    3.7325    5.6236 H         1 <0>         0.0000
     25 H11        -0.9298    1.4820    4.6501 H         1 <0>         0.0000
@<TRIPOS>BOND
     1    1    2 ar
     2    1    3 ar
     3    1   15 1
     4    2    4 ar
     5    2   16 1
     6    3    7 ar
     7    3   17 1
     8    4    8 ar
     9    4   18 1
    10    5    6 2
    11    5    9 1
    12    5   19 1
    13    6   13 1
    14    6   20 1
    15    7    8 ar
    16    7    9 1
    17    8   13 1
    18    9   14 2
    19   10   11 1
    20   10   12 1
    21   10   21 1
    22   10   22 1
    23   11   12 1
    24   11   23 1
    25   11   24 1
    26   12   13 1
    27   12   25 1
