@<TRIPOS>MOLECULE
*****
   28    29     0     0     0
SMALL
NO_CHARGES

@<TRIPOS>ATOM
      1 C1          0.3514    0.9647    0.1577 C.ar      1 <0>         0.0000
      2 C2         -0.5346    2.0330    0.3485 C.ar      1 <0>         0.0000
      3 C3          1.7379    1.1604    0.1710 C.ar      1 <0>         0.0000
      4 C4          1.3941    3.5117    0.5685 C.ar      1 <0>         0.0000
      5 C5         -0.0009    3.3013    0.5529 C.ar      1 <0>         0.0000
      6 C6          2.2779    2.4376    0.3767 C.ar      1 <0>         0.0000
      7 C7          1.6321    4.9354    0.8029 C.2       1 <0>         0.0000
      8 C8          0.4294    5.5948    0.9299 C.2       1 <0>         0.0000
      9 C9          0.2297    7.0064    1.1684 C.2       1 <0>         0.0000
     10 C10        -0.7103    4.6160    0.7824 C.3       1 <0>         0.0000
     11 C11         2.7604    9.6556    1.5759 C.3       1 <0>         0.0000
     12 C12         1.3435    9.1152    1.5051 C.3       1 <0>         0.0000
     13 O1         -0.8448    7.5772    1.2789 O.2       1 <0>         0.0000
     14 O2          3.6246    2.6722    0.3970 O.3       1 <0>         0.0000
     15 O3          2.8708    5.4407    0.8699 O.3       1 <0>         0.0000
     16 O4          1.4340    7.6881    1.2653 O.3       1 <0>         0.0000
     17 H1         -0.0360   -0.0377   -0.0043 H         1 <0>         0.0000
     18 H2         -1.6090    1.8713    0.3365 H         1 <0>         0.0000
     19 H3          2.4047    0.3128    0.0201 H         1 <0>         0.0000
     20 H4         -1.3680    4.8742   -0.0564 H         1 <0>         0.0000
     21 H5         -1.3437    4.5847    1.6772 H         1 <0>         0.0000
     22 H6          3.3192    9.1886    2.3929 H         1 <0>         0.0000
     23 H7          3.2968    9.4768    0.6387 H         1 <0>         0.0000
     24 H8          2.7343   10.7354    1.7535 H         1 <0>         0.0000
     25 H9          0.7708    9.5696    0.6923 H         1 <0>         0.0000
     26 H10         0.7948    9.2779    2.4365 H         1 <0>         0.0000
     27 H11         4.0895    1.8327    0.2504 H         1 <0>         0.0000
     28 H12         2.7731    6.4039    1.0322 H         1 <0>         0.0000
@<TRIPOS>BOND
     1    1    2 ar
     2    1    3 ar
     3    1   17 1
     4    2    5 ar
     5    2   18 1
     6    3    6 ar
     7    3   19 1
     8    4    5 ar
     9    4    6 ar
    10    4    7 1
    11    5   10 1
    12    6   14 1
    13    7    8 2
    14    7   15 1
    15    8    9 1
    16    8   10 1
    17    9   13 2
    18    9   16 1
    19   10   20 1
    20   10   21 1
    21   11   12 1
    22   11   22 1
    23   11   23 1
    24   11   24 1
    25   12   16 1
    26   12   25 1
    27   12   26 1
    28   14   27 1
    29   15   28 1
