@<TRIPOS>MOLECULE
*****
   39    41     0     0     0
SMALL
NO_CHARGES

@<TRIPOS>ATOM
      1 C1         -2.8400    0.9686    1.3254 C.ar      1 <0>         0.0000
      2 C2         -1.3506    2.7652    1.9222 C.ar      1 <0>         0.0000
      3 C3         -3.7025    1.3246    2.3652 C.ar      1 <0>         0.0000
      4 C4         -2.1999    3.1421    2.9671 C.ar      1 <0>         0.0000
      5 C5         -0.5300   -0.8436   -3.6801 C.2       1 <0>         0.0000
      6 C6          0.9897    0.5039   -3.1352 C.2       1 <0>         0.0000
      7 C7         -1.6509    1.6761    1.0931 C.ar      1 <0>         0.0000
      8 C8         -3.3618    2.4064    3.1711 C.ar      1 <0>         0.0000
      9 C9          1.2983   -1.1447    2.3984 C.3       1 <0>         0.0000
     10 C10         0.1101   -0.3621    2.9439 C.3       1 <0>         0.0000
     11 C11         0.8171    0.1052    1.7042 C.3       1 <0>         0.0000
     12 C12         2.0197    1.8463    2.9027 C.3       1 <0>         0.0000
     13 C13        -0.6944    1.2571    0.0028 C.3       1 <0>         0.0000
     14 C14         1.2291   -0.2412   -0.7105 C.3       1 <0>         0.0000
     15 C15         0.1221   -0.0176    0.3455 C.3       1 <0>         0.0000
     16 N1          0.2341    0.1683   -4.1760 N.2       1 <0>         0.0000
     17 N2         -0.2872   -1.1509   -2.4079 N.2       1 <0>         0.0000
     18 N3          0.7013   -0.2729   -2.0689 N.pl3     1 <0>         0.0000
     19 O1         -0.7284   -1.1607    0.4086 O.3       1 <0>         0.0000
     20 O2          1.6264    1.2705    1.6660 O.3       1 <0>         0.0000
     21 F1         -4.1964    2.7609    4.1863 F         1 <0>         0.0000
     22 H1         -3.0837    0.1168    0.6984 H         1 <0>         0.0000
     23 H2         -0.4357    3.3260    1.7520 H         1 <0>         0.0000
     24 H3         -4.6230    0.7804    2.5543 H         1 <0>         0.0000
     25 H4         -1.9752    3.9874    3.6107 H         1 <0>         0.0000
     26 H5         -1.2778   -1.3693   -4.2595 H         1 <0>         0.0000
     27 H6          1.7420    1.2818   -3.1107 H         1 <0>         0.0000
     28 H7          2.2341   -1.0838    2.9469 H         1 <0>         0.0000
     29 H8          1.0984   -2.0990    1.9230 H         1 <0>         0.0000
     30 H9         -0.8790   -0.7847    2.8164 H         1 <0>         0.0000
     31 H10         0.2519    0.1956    3.8628 H         1 <0>         0.0000
     32 H11         2.6763    2.6820    2.6503 H         1 <0>         0.0000
     33 H12         2.5799    1.1404    3.5302 H         1 <0>         0.0000
     34 H13         1.1574    2.2242    3.4646 H         1 <0>         0.0000
     35 H14         0.0012    2.0743   -0.2041 H         1 <0>         0.0000
     36 H15        -1.2445    1.0564   -0.9222 H         1 <0>         0.0000
     37 H16         1.9632    0.5633   -0.6578 H         1 <0>         0.0000
     38 H17         1.7275   -1.1914   -0.5030 H         1 <0>         0.0000
     39 H18        -0.9060   -1.4396   -0.5130 H         1 <0>         0.0000
@<TRIPOS>BOND
     1    1    3 ar
     2    1    7 ar
     3    1   22 1
     4    2    4 ar
     5    2    7 ar
     6    2   23 1
     7    3    8 ar
     8    3   24 1
     9    4    8 ar
    10    4   25 1
    11    5   16 1
    12    5   17 2
    13    5   26 1
    14    6   16 2
    15    6   18 1
    16    6   27 1
    17    7   13 1
    18    8   21 1
    19    9   10 1
    20    9   11 1
    21    9   28 1
    22    9   29 1
    23   10   11 1
    24   10   30 1
    25   10   31 1
    26   11   15 1
    27   11   20 1
    28   12   20 1
    29   12   32 1
    30   12   33 1
    31   12   34 1
    32   13   15 1
    33   13   35 1
    34   13   36 1
    35   14   15 1
    36   14   18 1
    37   14   37 1
    38   14   38 1
    39   15   19 1
    40   17   18 1
    41   19   39 1
