@<TRIPOS>MOLECULE
*****
   34    34     0     0     0
SMALL
NO_CHARGES

@<TRIPOS>ATOM
      1 C1          3.0279    1.0741   -1.2765 C.ar      1 <0>         0.0000
      2 C2          0.7418    0.3390   -1.1856 C.ar      1 <0>         0.0000
      3 C3          3.4371   -0.2293   -1.0149 C.ar      1 <0>         0.0000
      4 C4          1.6622    1.3782   -1.3688 C.ar      1 <0>         0.0000
      5 C5          2.4283   -1.2098   -0.8548 C.ar      1 <0>         0.0000
      6 C6          4.9023   -0.5745   -0.9048 C.3       1 <0>         0.0000
      7 C7          0.2715    6.7375   -1.0022 C.3       1 <0>         0.0000
      8 C8          0.3324    4.5776    1.4542 C.3       1 <0>         0.0000
      9 C9          2.7708   -2.6521   -0.5727 C.3       1 <0>         0.0000
     10 C10        -0.1527    4.5287   -1.8896 C.3       1 <0>         0.0000
     11 C11        -0.0414    3.0308   -1.6739 C.3       1 <0>         0.0000
     12 N1          1.1260   -0.9222   -0.9379 N.ar      1 <0>         0.0000
     13 N2          0.3801    5.2993   -0.7659 N.3       1 <0>         0.0000
     14 O1          3.4753   -3.1985   -1.7029 O.3       1 <0>         0.0000
     15 O2          1.3439    2.6784   -1.6309 O.3       1 <0>         0.0000
     16 O3         -0.4823    5.0080    0.3641 O.3       1 <0>         0.0000
     17 H1          3.7504    1.8755   -1.4094 H         1 <0>         0.0000
     18 H2         -0.3296    0.5084   -1.2410 H         1 <0>         0.0000
     19 H3          5.1274   -1.0369    0.0634 H         1 <0>         0.0000
     20 H4          5.1895   -1.2935   -1.6760 H         1 <0>         0.0000
     21 H5          5.5240    0.3196   -1.0023 H         1 <0>         0.0000
     22 H6          0.6327    7.2713   -0.1200 H         1 <0>         0.0000
     23 H7         -0.7610    7.0568   -1.2156 H         1 <0>         0.0000
     24 H8          0.9128    6.9974   -1.8503 H         1 <0>         0.0000
     25 H9         -0.3599    4.3590    2.2723 H         1 <0>         0.0000
     26 H10         1.0298    5.3659    1.7643 H         1 <0>         0.0000
     27 H11         0.9029    3.6792    1.1925 H         1 <0>         0.0000
     28 H12         3.3980   -2.7236    0.3296 H         1 <0>         0.0000
     29 H13         1.8337   -3.1898   -0.3929 H         1 <0>         0.0000
     30 H14         0.4227    4.8130   -2.7766 H         1 <0>         0.0000
     31 H15        -1.2135    4.7696   -2.0754 H         1 <0>         0.0000
     32 H16        -0.5360    2.5062   -2.5024 H         1 <0>         0.0000
     33 H17        -0.5361    2.7493   -0.7383 H         1 <0>         0.0000
     34 H18         3.7102   -4.1151   -1.4900 H         1 <0>         0.0000
@<TRIPOS>BOND
     1    1    3 ar
     2    1    4 ar
     3    1   17 1
     4    2    4 ar
     5    2   12 ar
     6    2   18 1
     7    3    5 ar
     8    3    6 1
     9    4   15 1
    10    5    9 1
    11    5   12 ar
    12    6   19 1
    13    6   20 1
    14    6   21 1
    15    7   13 1
    16    7   22 1
    17    7   23 1
    18    7   24 1
    19    8   16 1
    20    8   25 1
    21    8   26 1
    22    8   27 1
    23    9   14 1
    24    9   28 1
    25    9   29 1
    26   10   11 1
    27   10   13 1
    28   10   30 1
    29   10   31 1
    30   11   15 1
    31   11   32 1
    32   11   33 1
    33   13   16 1
    34   14   34 1
