@<TRIPOS>MOLECULE
*****
   34    36     0     0     0
SMALL
NO_CHARGES

@<TRIPOS>ATOM
      1 C1         -3.1653   -2.7559    0.5087 C.ar      1 <0>         0.0000
      2 C2         -3.3819   -1.9256   -0.5853 C.ar      1 <0>         0.0000
      3 C3         -1.8813   -2.7819    1.0632 C.ar      1 <0>         0.0000
      4 C4         -2.3300   -1.1419   -1.0851 C.ar      1 <0>         0.0000
      5 C5         -1.0706   -1.2299   -0.4492 C.ar      1 <0>         0.0000
      6 C6         -2.8023   -0.1312   -5.6177 C.3       1 <0>         0.0000
      7 C7         -1.3149   -0.0434   -5.8933 C.3       1 <0>         0.0000
      8 C8          0.1615    0.9943   -1.2222 C.3       1 <0>         0.0000
      9 C9          0.7805    0.4824    0.0595 C.3       1 <0>         0.0000
     10 C10        -1.8703    0.4218   -4.5751 C.3       1 <0>         0.0000
     11 C11         0.1786   -0.5085   -0.8998 C.3       1 <0>         0.0000
     12 C12         1.1631   -1.4111   -1.6402 C.3       1 <0>         0.0000
     13 C13        -2.6232   -0.2331   -2.2527 C.3       1 <0>         0.0000
     14 N1         -0.8682   -2.0482    0.5955 N.ar      1 <0>         0.0000
     15 N2         -1.6002   -0.3907   -3.3616 N.4       1 <0>         0.0000
     16 H1         -3.9611   -3.3685    0.9204 H         1 <0>         0.0000
     17 H2         -4.3655   -1.8780   -1.0473 H         1 <0>         0.0000
     18 H3         -1.6581   -3.4179    1.9175 H         1 <0>         0.0000
     19 H4         -3.4725    0.5685   -6.1051 H         1 <0>         0.0000
     20 H5         -3.2247   -1.1202   -5.4589 H         1 <0>         0.0000
     21 H6         -0.7515   -0.9724   -5.9185 H         1 <0>         0.0000
     22 H7         -0.9460    0.7208   -6.5689 H         1 <0>         0.0000
     23 H8         -0.7582    1.5622   -1.1125 H         1 <0>         0.0000
     24 H9          0.8341    1.3661   -1.9930 H         1 <0>         0.0000
     25 H10         1.8618    0.4984    0.1498 H         1 <0>         0.0000
     26 H11         0.2444    0.6770    0.9820 H         1 <0>         0.0000
     27 H12        -1.8868    1.4798   -4.3364 H         1 <0>         0.0000
     28 H13         2.0621   -0.8583   -1.9282 H         1 <0>         0.0000
     29 H14         0.7366   -1.8566   -2.5500 H         1 <0>         0.0000
     30 H15         1.4611   -2.2370   -0.9890 H         1 <0>         0.0000
     31 H16        -3.5947   -0.4577   -2.6947 H         1 <0>         0.0000
     32 H17        -2.6081    0.8258   -1.9885 H         1 <0>         0.0000
     33 H18        -1.5329   -1.3850   -3.6068 H         1 <0>         0.0000
     34 H19        -0.6873   -0.1303   -2.9546 H         1 <0>         0.0000
@<TRIPOS>BOND
     1    1    2 ar
     2    1    3 ar
     3    1   16 1
     4    2    4 ar
     5    2   17 1
     6    3   14 ar
     7    3   18 1
     8    4    5 ar
     9    4   13 1
    10    5   11 1
    11    5   14 ar
    12    6    7 1
    13    6   10 1
    14    6   19 1
    15    6   20 1
    16    7   10 1
    17    7   21 1
    18    7   22 1
    19    8    9 1
    20    8   11 1
    21    8   23 1
    22    8   24 1
    23    9   11 1
    24    9   25 1
    25    9   26 1
    26   10   15 1
    27   10   27 1
    28   11   12 1
    29   12   28 1
    30   12   29 1
    31   12   30 1
    32   13   15 1
    33   13   31 1
    34   13   32 1
    35   15   33 1
    36   15   34 1
