@<TRIPOS>MOLECULE
*****
   27    29     0     0     0
SMALL
NO_CHARGES

@<TRIPOS>ATOM
      1 C1          1.9658   -0.4285   -0.0234 C.ar      1 <0>         0.0000
      2 C2          0.7661   -0.2216    0.6656 C.ar      1 <0>         0.0000
      3 C3          5.3344   -3.5373    3.9182 C.ar      1 <0>         0.0000
      4 C4          6.5588   -2.9332    3.6164 C.ar      1 <0>         0.0000
      5 C5          3.0840   -0.9045    0.6607 C.ar      1 <0>         0.0000
      6 C6          0.7091   -0.4633    2.0361 C.ar      1 <0>         0.0000
      7 C7          4.1656   -2.9646    3.4262 C.ar      1 <0>         0.0000
      8 C8          6.5466   -1.7899    2.8148 C.ar      1 <0>         0.0000
      9 C9          2.0028   -1.0627    6.3205 C.2       1 <0>         0.0000
     10 C10         0.6768   -1.2642    6.0873 C.2       1 <0>         0.0000
     11 C11         3.0371   -1.1876    2.0338 C.ar      1 <0>         0.0000
     12 C12         1.8368   -0.9312    2.7368 C.ar      1 <0>         0.0000
     13 C13         4.2515   -1.8009    2.6447 C.ar      1 <0>         0.0000
     14 C14         1.7368   -1.0483    4.1950 C.2       1 <0>         0.0000
     15 N1          5.4286   -1.2352    2.3280 N.ar      1 <0>         0.0000
     16 N2          2.6627   -0.9241    5.1074 N.2       1 <0>         0.0000
     17 O1          0.4858   -1.2589    4.7274 O.3       1 <0>         0.0000
     18 H1          2.0276   -0.2269   -1.0896 H         1 <0>         0.0000
     19 H2         -0.1140    0.1428    0.1426 H         1 <0>         0.0000
     20 H3          5.2929   -4.4395    4.5233 H         1 <0>         0.0000
     21 H4          7.4981   -3.3388    3.9815 H         1 <0>         0.0000
     22 H5          4.0171   -1.0796    0.1348 H         1 <0>         0.0000
     23 H6         -0.2062   -0.2656    2.5844 H         1 <0>         0.0000
     24 H7          3.1986   -3.4099    3.6354 H         1 <0>         0.0000
     25 H8          7.4790   -1.2954    2.5454 H         1 <0>         0.0000
     26 H9          2.5256   -1.0003    7.2655 H         1 <0>         0.0000
     27 H10        -0.1978   -1.4204    6.7009 H         1 <0>         0.0000
@<TRIPOS>BOND
     1    1    2 ar
     2    1    5 ar
     3    1   18 1
     4    2    6 ar
     5    2   19 1
     6    3    4 ar
     7    3    7 ar
     8    3   20 1
     9    4    8 ar
    10    4   21 1
    11    5   11 ar
    12    5   22 1
    13    6   12 ar
    14    6   23 1
    15    7   13 ar
    16    7   24 1
    17    8   15 ar
    18    8   25 1
    19    9   10 2
    20    9   16 1
    21    9   26 1
    22   10   17 1
    23   10   27 1
    24   11   12 ar
    25   11   13 1
    26   12   14 1
    27   13   15 ar
    28   14   16 2
    29   14   17 1
