@<TRIPOS>MOLECULE
*****
   31    32     0     0     0
SMALL
NO_CHARGES

@<TRIPOS>ATOM
      1 C1          1.4221   -3.3447   -3.1145 C.ar      1 <0>         0.0000
      2 C2          0.7664   -4.5279   -2.7623 C.ar      1 <0>         0.0000
      3 C3          1.7221   -2.4053   -2.1263 C.ar      1 <0>         0.0000
      4 C4          0.4145   -4.7633   -1.4311 C.ar      1 <0>         0.0000
      5 C5          1.3788   -2.6167   -0.7853 C.ar      1 <0>         0.0000
      6 C6          0.7191   -3.8110   -0.4519 C.ar      1 <0>         0.0000
      7 C7         -1.4620    0.2633    1.3225 C.3       1 <0>         0.0000
      8 C8         -1.4808    1.5397    0.4692 C.3       1 <0>         0.0000
      9 C9         -0.6898   -0.8853    0.6659 C.3       1 <0>         0.0000
     10 C10        -0.0696    2.0337    0.1298 C.3       1 <0>         0.0000
     11 C11         1.6992   -1.5800    0.2729 C.3       1 <0>         0.0000
     12 N1          0.7120   -0.4813    0.4130 N.pl3     1 <0>         0.0000
     13 O1          0.0528    0.4308   -1.9755 O.2       1 <0>         0.0000
     14 O2          2.2500    1.0822   -0.8902 O.2       1 <0>         0.0000
     15 O3          0.3821   -4.0100    0.8743 O.3       1 <0>         0.0000
     16 S1          0.8271    0.7422   -0.7614 S.o2      1 <0>         0.0000
     17 H1          1.6948   -3.1541   -4.1482 H         1 <0>         0.0000
     18 H2          0.5258   -5.2698   -3.5192 H         1 <0>         0.0000
     19 H3          2.2248   -1.4809   -2.3972 H         1 <0>         0.0000
     20 H4         -0.0965   -5.6845   -1.1539 H         1 <0>         0.0000
     21 H5         -1.0047    0.4783    2.2954 H         1 <0>         0.0000
     22 H6         -2.4906   -0.0648    1.5087 H         1 <0>         0.0000
     23 H7         -2.0218    1.3595   -0.4653 H         1 <0>         0.0000
     24 H8         -2.0072    2.3407    0.9997 H         1 <0>         0.0000
     25 H9         -0.6473   -1.7439    1.3389 H         1 <0>         0.0000
     26 H10        -1.1786   -1.2150   -0.2604 H         1 <0>         0.0000
     27 H11        -0.0818    2.8939   -0.5448 H         1 <0>         0.0000
     28 H12         0.5284    2.2664    1.0135 H         1 <0>         0.0000
     29 H13         1.7594   -2.0482    1.2572 H         1 <0>         0.0000
     30 H14         2.6625   -1.1109    0.0672 H         1 <0>         0.0000
     31 H15        -0.0140   -4.8908    0.9655 H         1 <0>         0.0000
@<TRIPOS>BOND
     1    1    2 ar
     2    1    3 ar
     3    1   17 1
     4    2    4 ar
     5    2   18 1
     6    3    5 ar
     7    3   19 1
     8    4    6 ar
     9    4   20 1
    10    5    6 ar
    11    5   11 1
    12    6   15 1
    13    7    8 1
    14    7    9 1
    15    7   21 1
    16    7   22 1
    17    8   10 1
    18    8   23 1
    19    8   24 1
    20    9   12 1
    21    9   25 1
    22    9   26 1
    23   10   16 1
    24   10   27 1
    25   10   28 1
    26   11   12 1
    27   11   29 1
    28   11   30 1
    29   12   16 1
    30   13   16 2
    31   14   16 2
    32   15   31 1
