@<TRIPOS>MOLECULE
*****
   14    14     0     0     0
SMALL
NO_CHARGES

@<TRIPOS>ATOM
      1 C1         -1.0663   -0.0451   -0.9318 C.3       1 <0>         0.0000
      2 C2          0.3156    0.4678   -1.3290 C.3       1 <0>         0.0000
      3 C3          0.0680   -0.0302    0.0606 C.3       1 <0>         0.0000
      4 C4          0.6990   -1.3209    0.5455 C.3       1 <0>         0.0000
      5 O1          0.0673    0.9657    1.0669 O.3       1 <0>         0.0000
      6 O2          0.6671   -2.2912   -0.5046 O.3       1 <0>         0.0000
      7 H1         -1.8508    0.6937   -0.7939 H         1 <0>         0.0000
      8 H2         -1.3807   -1.0039   -1.3311 H         1 <0>         0.0000
      9 H3          0.9100   -0.1547   -1.9895 H         1 <0>         0.0000
     10 H4          0.4413    1.5404   -1.4378 H         1 <0>         0.0000
     11 H5          0.1426   -1.6829    1.4254 H         1 <0>         0.0000
     12 H6          1.7301   -1.1048    0.8590 H         1 <0>         0.0000
     13 H7         -0.6719    0.7779    1.6678 H         1 <0>         0.0000
     14 H8          1.1744   -3.0644   -0.2170 H         1 <0>         0.0000
@<TRIPOS>BOND
     1    1    2 1
     2    1    3 1
     3    1    7 1
     4    1    8 1
     5    2    3 1
     6    2    9 1
     7    2   10 1
     8    3    4 1
     9    3    5 1
    10    4    6 1
    11    4   11 1
    12    4   12 1
    13    5   13 1
    14    6   14 1
