@<TRIPOS>MOLECULE
*****
   34    34     0     0     0
SMALL
NO_CHARGES

@<TRIPOS>ATOM
      1 C1          2.4566    0.5026   -1.3056 C.ar      1 <0>         0.0000
      2 C2          0.2830   -0.4713   -1.6240 C.ar      1 <0>         0.0000
      3 C3          2.8593   -0.6579   -0.6526 C.ar      1 <0>         0.0000
      4 C4          1.1518    0.6108   -1.8061 C.ar      1 <0>         0.0000
      5 C5          1.9086   -1.6994   -0.5282 C.ar      1 <0>         0.0000
      6 C6          4.2574   -0.7910   -0.0995 C.3       1 <0>         0.0000
      7 C7         -1.9613    4.7935   -4.8888 C.3       1 <0>         0.0000
      8 C8         -3.9442    2.8202   -3.2660 C.3       1 <0>         0.0000
      9 C9          2.2513   -2.9984    0.1589 C.3       1 <0>         0.0000
     10 C10        -0.5794    3.3060   -3.5717 C.3       1 <0>         0.0000
     11 C11        -0.4972    1.9211   -2.9468 C.3       1 <0>         0.0000
     12 N1          0.6628   -1.5969   -1.0011 N.ar      1 <0>         0.0000
     13 N2         -1.8992    3.5237   -4.1633 N.3       1 <0>         0.0000
     14 O1          3.2667   -3.6794   -0.6010 O.3       1 <0>         0.0000
     15 O2          0.8333    1.7792   -2.4373 O.3       1 <0>         0.0000
     16 O3         -2.8130    3.6569   -3.0402 O.3       1 <0>         0.0000
     17 H1          3.1378    1.3398   -1.4360 H         1 <0>         0.0000
     18 H2         -0.7415   -0.4475   -1.9841 H         1 <0>         0.0000
     19 H3          4.2375   -1.0009    0.9764 H         1 <0>         0.0000
     20 H4          4.7852   -1.6202   -0.5769 H         1 <0>         0.0000
     21 H5          4.8282    0.1290   -0.2510 H         1 <0>         0.0000
     22 H6         -2.9800    4.9445   -5.2539 H         1 <0>         0.0000
     23 H7         -1.2910    4.7325   -5.7516 H         1 <0>         0.0000
     24 H8         -1.6741    5.6517   -4.2624 H         1 <0>         0.0000
     25 H9         -4.5958    2.9648   -2.3998 H         1 <0>         0.0000
     26 H10        -3.6522    1.7658   -3.3411 H         1 <0>         0.0000
     27 H11        -4.4811    3.1083   -4.1788 H         1 <0>         0.0000
     28 H12         2.6153   -2.8029    1.1796 H         1 <0>         0.0000
     29 H13         1.3357   -3.5963    0.2207 H         1 <0>         0.0000
     30 H14        -0.3407    4.0711   -2.8171 H         1 <0>         0.0000
     31 H15         0.1577    3.3803   -4.3775 H         1 <0>         0.0000
     32 H16        -0.7010    1.1522   -3.7020 H         1 <0>         0.0000
     33 H17        -1.2254    1.8261   -2.1340 H         1 <0>         0.0000
     34 H18         3.4878   -4.4987   -0.1314 H         1 <0>         0.0000
@<TRIPOS>BOND
     1    1    3 ar
     2    1    4 ar
     3    1   17 1
     4    2    4 ar
     5    2   12 ar
     6    2   18 1
     7    3    5 ar
     8    3    6 1
     9    4   15 1
    10    5    9 1
    11    5   12 ar
    12    6   19 1
    13    6   20 1
    14    6   21 1
    15    7   13 1
    16    7   22 1
    17    7   23 1
    18    7   24 1
    19    8   16 1
    20    8   25 1
    21    8   26 1
    22    8   27 1
    23    9   14 1
    24    9   28 1
    25    9   29 1
    26   10   11 1
    27   10   13 1
    28   10   30 1
    29   10   31 1
    30   11   15 1
    31   11   32 1
    32   11   33 1
    33   13   16 1
    34   14   34 1
