@<TRIPOS>MOLECULE
*****
   32    33     0     0     0
SMALL
NO_CHARGES

@<TRIPOS>ATOM
      1 C1          0.1761   -5.1497    0.5097 C.2       1 <0>         0.0000
      2 C2         -0.1029   -1.1053   -0.9167 C.2       1 <0>         0.0000
      3 C3         -0.9591   -5.5589   -0.2715 C.2       1 <0>         0.0000
      4 C4          0.5237   -1.6005   -2.0997 C.2       1 <0>         0.0000
      5 C5          0.1349   -2.0418    0.0994 C.2       1 <0>         0.0000
      6 C6         -0.0352   -5.7223    1.7328 C.2       1 <0>         0.0000
      7 C7         -1.2805   -5.2032   -1.6901 C.3       1 <0>         0.0000
      8 C8          0.5891   -1.0109   -3.4718 C.3       1 <0>         0.0000
      9 C9         -0.2596   -2.0828    1.5394 C.3       1 <0>         0.0000
     10 C10         0.7154   -5.7129    3.0202 C.3       1 <0>         0.0000
     11 C11         1.3136   -4.2830    0.0640 C.3       1 <0>         0.0000
     12 N1          1.0999   -2.7673   -1.8313 N.2       1 <0>         0.0000
     13 N2         -1.7730   -6.3164    0.4293 N.2       1 <0>         0.0000
     14 N3          0.8595   -3.0110   -0.5033 N.pl3     1 <0>         0.0000
     15 N4         -0.8367    0.1115   -0.7859 N.pl3     1 <0>         0.0000
     16 O1         -1.3682    0.3668    0.3089 O.3       1 <0>         0.0000
     17 O2         -0.9074    0.8508   -1.7802 O.2       1 <0>         0.0000
     18 O3         -1.1880   -6.4274    1.7072 O.3       1 <0>         0.0000
     19 H1         -0.4361   -5.4224   -2.3499 H         1 <0>         0.0000
     20 H2         -2.1560   -5.7622   -2.0261 H         1 <0>         0.0000
     21 H3         -1.4882   -4.1326   -1.7818 H         1 <0>         0.0000
     22 H4          1.0817   -0.0350   -3.4537 H         1 <0>         0.0000
     23 H5          1.1418   -1.6873   -4.1272 H         1 <0>         0.0000
     24 H6         -0.4140   -0.8476   -3.8751 H         1 <0>         0.0000
     25 H7         -1.2313   -2.5744    1.6578 H         1 <0>         0.0000
     26 H8          0.4724   -2.6380    2.1304 H         1 <0>         0.0000
     27 H9         -0.3518   -1.0701    1.9292 H         1 <0>         0.0000
     28 H10         0.0753   -5.3609    3.8353 H         1 <0>         0.0000
     29 H11         1.0608   -6.7193    3.2775 H         1 <0>         0.0000
     30 H12         1.5875   -5.0589    2.9543 H         1 <0>         0.0000
     31 H13         1.9992   -4.0868    0.8937 H         1 <0>         0.0000
     32 H14         1.8906   -4.7509   -0.7363 H         1 <0>         0.0000
@<TRIPOS>BOND
     1    1    3 1
     2    1    6 2
     3    1   11 1
     4    2    4 1
     5    2    5 2
     6    2   15 1
     7    3    7 1
     8    3   13 2
     9    4    8 1
    10    4   12 2
    11    5    9 1
    12    5   14 1
    13    6   10 1
    14    6   18 1
    15    7   19 1
    16    7   20 1
    17    7   21 1
    18    8   22 1
    19    8   23 1
    20    8   24 1
    21    9   25 1
    22    9   26 1
    23    9   27 1
    24   10   28 1
    25   10   29 1
    26   10   30 1
    27   11   14 1
    28   11   31 1
    29   11   32 1
    30   12   14 1
    31   13   18 1
    32   15   16 1
    33   15   17 2
