@<TRIPOS>MOLECULE
*****
   35    36     0     0     0
SMALL
NO_CHARGES

@<TRIPOS>ATOM
      1 C1         -3.9037   -0.2512    0.1336 C.ar      1 <0>         0.0000
      2 C2         -5.1076   -0.8468    0.4649 C.ar      1 <0>         0.0000
      3 C3         -2.7379   -1.0323    0.3380 C.ar      1 <0>         0.0000
      4 C4         -4.0544   -2.7492    1.1262 C.ar      1 <0>         0.0000
      5 C5         -1.2008    0.7602   -0.4674 C.3       1 <0>         0.0000
      6 C6         -0.2838   -1.3176    0.3866 C.3       1 <0>         0.0000
      7 C7          0.2982    0.6957   -0.8314 C.3       1 <0>         0.0000
      8 C8          0.8298   -0.2613    0.2788 C.3       1 <0>         0.0000
      9 C9         -4.1278   -4.1577    1.6579 C.3       1 <0>         0.0000
     10 C10         0.9520    2.0808   -0.8081 C.3       1 <0>         0.0000
     11 C11         0.4588    0.0709   -2.2301 C.3       1 <0>         0.0000
     12 C12         2.2105   -0.8669    0.0411 C.3       1 <0>         0.0000
     13 N1         -5.2153   -2.0950    0.9621 N.ar      1 <0>         0.0000
     14 N2         -2.8299   -2.2824    0.8417 N.ar      1 <0>         0.0000
     15 N3         -1.4945   -0.5767    0.0430 N.pl3     1 <0>         0.0000
     16 O1          0.8490    0.5333    1.4834 O.3       1 <0>         0.0000
     17 H1         -3.8647    0.7621   -0.2489 H         1 <0>         0.0000
     18 H2         -6.0417   -0.3013    0.3337 H         1 <0>         0.0000
     19 H3         -1.3874    1.5232    0.2991 H         1 <0>         0.0000
     20 H4         -1.8158    0.9903   -1.3443 H         1 <0>         0.0000
     21 H5         -0.1256   -2.1582   -0.2998 H         1 <0>         0.0000
     22 H6         -0.3549   -1.7388    1.3942 H         1 <0>         0.0000
     23 H7         -4.0544   -4.8699    0.8274 H         1 <0>         0.0000
     24 H8         -3.2934   -4.3566    2.3349 H         1 <0>         0.0000
     25 H9         -5.0783   -4.3228    2.1677 H         1 <0>         0.0000
     26 H10         2.0143    2.0167   -1.0664 H         1 <0>         0.0000
     27 H11         0.8680    2.5451    0.1756 H         1 <0>         0.0000
     28 H12         0.4743    2.7345   -1.5468 H         1 <0>         0.0000
     29 H13         1.5125   -0.0246   -2.5076 H         1 <0>         0.0000
     30 H14        -0.0192    0.7136   -2.9766 H         1 <0>         0.0000
     31 H15        -0.0052   -0.9175   -2.3013 H         1 <0>         0.0000
     32 H16         2.9616   -0.0775   -0.0521 H         1 <0>         0.0000
     33 H17         2.2393   -1.4901   -0.8560 H         1 <0>         0.0000
     34 H18         2.4946   -1.4998    0.8904 H         1 <0>         0.0000
     35 H19         1.0143   -0.0625    2.2312 H         1 <0>         0.0000
@<TRIPOS>BOND
     1    1    2 ar
     2    1    3 ar
     3    1   17 1
     4    2   13 ar
     5    2   18 1
     6    3   14 ar
     7    3   15 1
     8    4    9 1
     9    4   13 ar
    10    4   14 ar
    11    5    7 1
    12    5   15 1
    13    5   19 1
    14    5   20 1
    15    6    8 1
    16    6   15 1
    17    6   21 1
    18    6   22 1
    19    7    8 1
    20    7   10 1
    21    7   11 1
    22    8   12 1
    23    8   16 1
    24    9   23 1
    25    9   24 1
    26    9   25 1
    27   10   26 1
    28   10   27 1
    29   10   28 1
    30   11   29 1
    31   11   30 1
    32   11   31 1
    33   12   32 1
    34   12   33 1
    35   12   34 1
    36   16   35 1
