@<TRIPOS>MOLECULE
*****
   44    47     0     0     0
SMALL
NO_CHARGES

@<TRIPOS>ATOM
      1 C1          2.3900   -2.1255   -2.7293 C.1       1 <0>         0.0000
      2 C2         -0.0016    2.3974    2.4310 C.ar      1 <0>         0.0000
      3 C3          0.8336    1.3084    2.0802 C.ar      1 <0>         0.0000
      4 C4         -1.0884    2.7965    1.6464 C.ar      1 <0>         0.0000
      5 C5         -0.5063    0.9668    0.1433 C.ar      1 <0>         0.0000
      6 C6          0.5843    0.5762    0.9230 C.ar      1 <0>         0.0000
      7 C7         -0.9685    0.3903   -1.0780 C.2       1 <0>         0.0000
      8 C8         -1.3308    2.0644    0.4757 C.ar      1 <0>         0.0000
      9 C9         -2.0527    1.1412   -1.4799 C.2       1 <0>         0.0000
     10 C10         0.9715   -1.8986    1.1358 C.2       1 <0>         0.0000
     11 C11         1.0122   -3.1020    0.5519 C.2       1 <0>         0.0000
     12 C12        -1.8143   -4.4117    1.0233 C.2       1 <0>         0.0000
     13 C13        -0.2463   -0.8111   -1.6165 C.3       1 <0>         0.0000
     14 C14         1.4700   -3.3026   -0.8690 C.3       1 <0>         0.0000
     15 C15         1.3747   -0.6214    0.4291 C.3       1 <0>         0.0000
     16 C16         1.2196   -0.8000   -1.1040 C.3       1 <0>         0.0000
     17 C17        -2.9385   -5.0343    0.2309 C.3       1 <0>         0.0000
     18 C18        -2.9449    1.0315   -2.6733 C.3       1 <0>         0.0000
     19 C19         0.5648   -4.3442    1.2704 C.3       1 <0>         0.0000
     20 N1          2.8181   -2.1967   -3.8166 N.1       1 <0>         0.0000
     21 N2         -2.2621    2.1648   -0.5446 N.pl3     1 <0>         0.0000
     22 N3          1.9342   -2.0413   -1.4748 N.3       1 <0>         0.0000
     23 O1         -1.9436   -3.5725    1.8916 O.2       1 <0>         0.0000
     24 O2         -4.3385    1.0484   -2.3206 O.3       1 <0>         0.0000
     25 O3         -0.6136   -4.9196    0.6326 O.3       1 <0>         0.0000
     26 H1          0.2160    2.9503    3.3410 H         1 <0>         0.0000
     27 H2          1.6741    1.0552    2.7231 H         1 <0>         0.0000
     28 H3         -1.7033    3.6436    1.9388 H         1 <0>         0.0000
     29 H4          0.6072   -1.8095    2.1564 H         1 <0>         0.0000
     30 H5         -0.7371   -1.7293   -1.2712 H         1 <0>         0.0000
     31 H6         -0.2299   -0.8433   -2.7105 H         1 <0>         0.0000
     32 H7          2.3061   -4.0109   -0.8944 H         1 <0>         0.0000
     33 H8          0.6581   -3.7529   -1.4580 H         1 <0>         0.0000
     34 H9          2.4406   -0.4443    0.6231 H         1 <0>         0.0000
     35 H10         1.7473    0.0211   -1.5955 H         1 <0>         0.0000
     36 H11        -2.8416   -4.7591   -0.8240 H         1 <0>         0.0000
     37 H12        -3.8943   -4.6818    0.6174 H         1 <0>         0.0000
     38 H13        -2.8857   -6.1247    0.2898 H         1 <0>         0.0000
     39 H14        -2.8202    1.8900   -3.3413 H         1 <0>         0.0000
     40 H15        -2.6840    0.1283   -3.2389 H         1 <0>         0.0000
     41 H16         0.3426   -4.1320    2.3165 H         1 <0>         0.0000
     42 H17         1.3104   -5.1414    1.2051 H         1 <0>         0.0000
     43 H18        -3.0761    2.7645   -0.5559 H         1 <0>         0.0000
     44 H19        -4.4939    0.3112   -1.7077 H         1 <0>         0.0000
@<TRIPOS>BOND
     1    1   20 3
     2    1   22 1
     3    2    3 ar
     4    2    4 ar
     5    2   26 1
     6    3    6 ar
     7    3   27 1
     8    4    8 ar
     9    4   28 1
    10    5    6 ar
    11    5    7 1
    12    5    8 ar
    13    6   15 1
    14    7    9 2
    15    7   13 1
    16    8   21 1
    17    9   18 1
    18    9   21 1
    19   10   11 2
    20   10   15 1
    21   10   29 1
    22   11   14 1
    23   11   19 1
    24   12   17 1
    25   12   23 2
    26   12   25 1
    27   13   16 1
    28   13   30 1
    29   13   31 1
    30   14   22 1
    31   14   32 1
    32   14   33 1
    33   15   16 1
    34   15   34 1
    35   16   22 1
    36   16   35 1
    37   17   36 1
    38   17   37 1
    39   17   38 1
    40   18   24 1
    41   18   39 1
    42   18   40 1
    43   19   25 1
    44   19   41 1
    45   19   42 1
    46   21   43 1
    47   24   44 1
