@<TRIPOS>MOLECULE
*****
   37    39     0     0     0
SMALL
NO_CHARGES

@<TRIPOS>ATOM
      1 C1         -2.4118   -1.2822    0.6244 C.1       1 <0>         0.0000
      2 C2         -3.2966    2.0599    3.4451 C.ar      1 <0>         0.0000
      3 C3         -2.4096    2.0731    2.3808 C.ar      1 <0>         0.0000
      4 C4         -3.1023    1.1408    4.4855 C.ar      1 <0>         0.0000
      5 C5         -1.0780   -1.7780    0.6321 C.2       1 <0>         0.0000
      6 C6         -1.3379    1.1555    2.3047 C.ar      1 <0>         0.0000
      7 C7         -0.7631   -3.1840    0.6732 C.2       1 <0>         0.0000
      8 C8         -2.0348    0.2441    4.4768 C.ar      1 <0>         0.0000
      9 C9         -1.1477    0.2576    3.3813 C.ar      1 <0>         0.0000
     10 C10         0.5838   -3.4218    0.6282 C.2       1 <0>         0.0000
     11 C11         0.0488   -0.9603    0.5686 C.2       1 <0>         0.0000
     12 C12        -0.4935    1.2728    1.1055 C.2       1 <0>         0.0000
     13 C13        -1.7794   -4.2940    0.7610 C.3       1 <0>         0.0000
     14 C14         1.2286   -4.7785    0.6972 C.3       1 <0>         0.0000
     15 C15        -1.1185   -5.6146    1.1876 C.3       1 <0>         0.0000
     16 C16         0.1806   -5.8693    0.4101 C.3       1 <0>         0.0000
     17 C17        -1.8015   -0.7300    5.6042 C.3       1 <0>         0.0000
     18 N1         -3.5157   -0.9042    0.6095 N.1       1 <0>         0.0000
     19 N2          0.1631    0.4025    0.4120 N.2       1 <0>         0.0000
     20 O1         -0.0943   -0.6055    3.4882 O.3       1 <0>         0.0000
     21 S1          1.5034   -1.9389    0.5042 S.3       1 <0>         0.0000
     22 H1         -4.1320    2.7529    3.4727 H         1 <0>         0.0000
     23 H2         -2.5507    2.7756    1.5631 H         1 <0>         0.0000
     24 H3         -3.7913    1.1261    5.3269 H         1 <0>         0.0000
     25 H4         -0.4167    2.2932    0.7218 H         1 <0>         0.0000
     26 H5         -2.5742   -4.0169    1.4619 H         1 <0>         0.0000
     27 H6         -2.2656   -4.4132   -0.2163 H         1 <0>         0.0000
     28 H7          2.0571   -4.8517   -0.0162 H         1 <0>         0.0000
     29 H8          1.6621   -4.9313    1.6949 H         1 <0>         0.0000
     30 H9         -0.8937   -5.5771    2.2611 H         1 <0>         0.0000
     31 H10        -1.8194   -6.4424    1.0377 H         1 <0>         0.0000
     32 H11        -0.0376   -5.8855   -0.6649 H         1 <0>         0.0000
     33 H12         0.5959   -6.8491    0.6683 H         1 <0>         0.0000
     34 H13        -1.7768   -1.7602    5.2343 H         1 <0>         0.0000
     35 H14        -0.8376   -0.5483    6.0913 H         1 <0>         0.0000
     36 H15        -2.5909   -0.6481    6.3557 H         1 <0>         0.0000
     37 H16         0.3796   -0.6896    2.6444 H         1 <0>         0.0000
@<TRIPOS>BOND
     1    1    5 1
     2    1   18 3
     3    2    3 ar
     4    2    4 ar
     5    2   22 1
     6    3    6 ar
     7    3   23 1
     8    4    8 ar
     9    4   24 1
    10    5    7 1
    11    5   11 2
    12    6    9 ar
    13    6   12 1
    14    7   10 2
    15    7   13 1
    16    8    9 ar
    17    8   17 1
    18    9   20 1
    19   10   14 1
    20   10   21 1
    21   11   19 1
    22   11   21 1
    23   12   19 2
    24   12   25 1
    25   13   15 1
    26   13   26 1
    27   13   27 1
    28   14   16 1
    29   14   28 1
    30   14   29 1
    31   15   16 1
    32   15   30 1
    33   15   31 1
    34   16   32 1
    35   16   33 1
    36   17   34 1
    37   17   35 1
    38   17   36 1
    39   20   37 1
