@<TRIPOS>MOLECULE
*****
   28    30     0     0     0
SMALL
NO_CHARGES

@<TRIPOS>ATOM
      1 C1         -0.7922    0.3386   -4.9515 C.ar      1 <0>         0.0000
      2 C2         -0.1920   -0.6172   -5.8052 C.ar      1 <0>         0.0000
      3 C3         -0.8133    0.1322   -3.5878 C.ar      1 <0>         0.0000
      4 C4          0.3725   -1.7564   -5.2701 C.ar      1 <0>         0.0000
      5 C5          0.2926   -2.4137   -1.0834 C.ar      1 <0>         0.0000
      6 C6          0.9010   -3.3710   -1.9250 C.ar      1 <0>         0.0000
      7 C7         -0.2375   -1.0289   -2.9971 C.ar      1 <0>         0.0000
      8 C8          0.3707   -1.9975   -3.8684 C.ar      1 <0>         0.0000
      9 C9         -0.2629   -1.2536   -1.5850 C.ar      1 <0>         0.0000
     10 C10         0.9468   -3.1720   -3.2885 C.ar      1 <0>         0.0000
     11 C11        -2.4585   -0.2068   -0.5406 C.3       1 <0>         0.0000
     12 C12        -2.2357   -0.0839    0.9849 C.3       1 <0>         0.0000
     13 C13        -0.9033   -0.2509   -0.6579 C.3       1 <0>         0.0000
     14 N1         -0.8410   -0.5729    0.7950 N.3       1 <0>         0.0000
     15 O1          1.5551   -4.1445   -4.0465 O.3       1 <0>         0.0000
     16 H1         -1.2400    1.2341   -5.3744 H         1 <0>         0.0000
     17 H2         -0.1802   -0.4559   -6.8797 H         1 <0>         0.0000
     18 H3         -1.2865    0.8714   -2.9501 H         1 <0>         0.0000
     19 H4          0.8154   -2.4734   -5.9594 H         1 <0>         0.0000
     20 H5          0.2518   -2.5827   -0.0122 H         1 <0>         0.0000
     21 H6          1.3422   -4.2739   -1.5131 H         1 <0>         0.0000
     22 H7         -2.9109   -1.1572   -0.8311 H         1 <0>         0.0000
     23 H8         -2.9742    0.6149   -1.0418 H         1 <0>         0.0000
     24 H9         -2.3012    0.9576    1.3301 H         1 <0>         0.0000
     25 H10        -2.8448   -0.7157    1.6395 H         1 <0>         0.0000
     26 H11        -0.5175    0.7575   -0.8730 H         1 <0>         0.0000
     27 H12        -0.1285   -0.0577    1.3084 H         1 <0>         0.0000
     28 H13         1.5737   -3.8751   -4.9764 H         1 <0>         0.0000
@<TRIPOS>BOND
     1    1    2 ar
     2    1    3 ar
     3    1   16 1
     4    2    4 ar
     5    2   17 1
     6    3    7 ar
     7    3   18 1
     8    4    8 ar
     9    4   19 1
    10    5    6 ar
    11    5    9 ar
    12    5   20 1
    13    6   10 ar
    14    6   21 1
    15    7    8 ar
    16    7    9 ar
    17    8   10 ar
    18    9   13 1
    19   10   15 1
    20   11   12 1
    21   11   13 1
    22   11   22 1
    23   11   23 1
    24   12   14 1
    25   12   24 1
    26   12   25 1
    27   13   14 1
    28   13   26 1
    29   14   27 1
    30   15   28 1
