@<TRIPOS>MOLECULE
*****
   32    33     0     0     0
SMALL
NO_CHARGES

@<TRIPOS>ATOM
      1 C1          1.2163    1.0939   -2.3247 C.ar      1 <0>         0.0000
      2 C2          0.0922    0.5372   -2.9423 C.ar      1 <0>         0.0000
      3 C3          1.3444    1.0334   -0.9373 C.ar      1 <0>         0.0000
      4 C4         -0.8763   -0.1023   -2.1671 C.ar      1 <0>         0.0000
      5 C5          0.3726    0.4175   -0.1282 C.ar      1 <0>         0.0000
      6 C6         -0.7411   -0.1791   -0.7751 C.ar      1 <0>         0.0000
      7 C7         -0.1869   -0.4591    2.1044 C.2       1 <0>         0.0000
      8 C8          0.4722    0.4395    1.3474 C.2       1 <0>         0.0000
      9 C9         -1.0128   -1.5757    1.5308 C.3       1 <0>         0.0000
     10 C10         1.3196    1.4854    2.0427 C.3       1 <0>         0.0000
     11 C11        -0.7337    3.0697    2.1530 C.3       1 <0>         0.0000
     12 C12         0.8024    2.9429    2.0069 C.3       1 <0>         0.0000
     13 C13         1.4826    3.7223    3.1504 C.3       1 <0>         0.0000
     14 O1         -1.3994    2.6948    0.9630 O.3       1 <0>         0.0000
     15 O2          1.2142    3.5376    0.7724 O.3       1 <0>         0.0000
     16 F1          2.8206    3.5550    3.1727 F         1 <0>         0.0000
     17 F2          1.2563    5.0610    3.0222 F         1 <0>         0.0000
     18 F3          1.0026    3.3504    4.3606 F         1 <0>         0.0000
     19 S1         -2.0352   -0.9774    0.1382 S.3       1 <0>         0.0000
     20 H1          1.9863    1.5795   -2.9179 H         1 <0>         0.0000
     21 H2         -0.0251    0.5851   -4.0218 H         1 <0>         0.0000
     22 H3          2.2086    1.4951   -0.4747 H         1 <0>         0.0000
     23 H4         -1.7387   -0.5615   -2.6435 H         1 <0>         0.0000
     24 H5         -0.1175   -0.4013    3.1891 H         1 <0>         0.0000
     25 H6         -0.3823   -2.4033    1.1831 H         1 <0>         0.0000
     26 H7         -1.7107   -1.9731    2.2712 H         1 <0>         0.0000
     27 H8          1.4023    1.1961    3.0931 H         1 <0>         0.0000
     28 H9          2.3385    1.4991    1.6470 H         1 <0>         0.0000
     29 H10        -0.9867    4.1042    2.4292 H         1 <0>         0.0000
     30 H11        -1.0896    2.4096    2.9476 H         1 <0>         0.0000
     31 H12        -0.8312    2.9442    0.2133 H         1 <0>         0.0000
     32 H13         1.0370    4.4942    0.8125 H         1 <0>         0.0000
@<TRIPOS>BOND
     1    1    2 ar
     2    1    3 ar
     3    1   20 1
     4    2    4 ar
     5    2   21 1
     6    3    5 ar
     7    3   22 1
     8    4    6 ar
     9    4   23 1
    10    5    6 ar
    11    5    8 1
    12    6   19 1
    13    7    8 2
    14    7    9 1
    15    7   24 1
    16    8   10 1
    17    9   19 1
    18    9   25 1
    19    9   26 1
    20   10   12 1
    21   10   27 1
    22   10   28 1
    23   11   12 1
    24   11   14 1
    25   11   29 1
    26   11   30 1
    27   12   13 1
    28   12   15 1
    29   13   16 1
    30   13   17 1
    31   13   18 1
    32   14   31 1
    33   15   32 1
