@<TRIPOS>MOLECULE
*****
   40    42     0     0     0
SMALL
NO_CHARGES

@<TRIPOS>ATOM
      1 C1          8.4750    2.9097    5.7162 C.1       1 <0>         0.0000
      2 C2          3.5331    5.2038    2.9958 C.ar      1 <0>         0.0000
      3 C3          3.3297    4.1995    2.0406 C.ar      1 <0>         0.0000
      4 C4          3.7146    4.8724    4.3471 C.ar      1 <0>         0.0000
      5 C5          3.3025    2.8478    2.4097 C.ar      1 <0>         0.0000
      6 C6          6.8781    1.5037    2.8073 C.2       1 <0>         0.0000
      7 C7          7.6815    2.2119    4.7597 C.2       1 <0>         0.0000
      8 C8          3.6872    3.5323    4.7269 C.ar      1 <0>         0.0000
      9 C9          3.4872    2.5392    3.7573 C.ar      1 <0>         0.0000
     10 C10         6.1475    1.0126    3.8672 C.2       1 <0>         0.0000
     11 C11         3.8525    2.8988    6.0907 C.3       1 <0>         0.0000
     12 C12         3.4204    1.4355    5.8433 C.3       1 <0>         0.0000
     13 C13         6.9269    4.7215    1.4207 C.3       1 <0>         0.0000
     14 C14         7.9007    5.5156    3.5686 C.3       1 <0>         0.0000
     15 N1          9.0718    3.5020    6.5213 N.1       1 <0>         0.0000
     16 N2          6.6416    1.4532    5.0652 N.2       1 <0>         0.0000
     17 N3          7.8766    2.2636    3.3807 N.pl3     1 <0>         0.0000
     18 N4          3.4770    1.2375    4.3557 N.pl3     1 <0>         0.0000
     19 N5          8.0948    4.7525    2.3213 N.pl3     1 <0>         0.0000
     20 O1          4.3537   -0.0390    2.3294 O.2       1 <0>         0.0000
     21 O2          4.6106   -1.0071    4.6837 O.2       1 <0>         0.0000
     22 O3         10.0897    3.5553    3.3119 O.2       1 <0>         0.0000
     23 O4          9.0077    2.7171    1.1435 O.2       1 <0>         0.0000
     24 S1          4.6063    0.1180    3.7598 S.o2      1 <0>         0.0000
     25 S2          8.9514    3.3519    2.4446 S.o2      1 <0>         0.0000
     26 H1          3.5378    6.2468    2.6901 H         1 <0>         0.0000
     27 H2          3.1776    4.4690    0.9987 H         1 <0>         0.0000
     28 H3          3.8641    5.6531    5.0894 H         1 <0>         0.0000
     29 H4          3.1445    2.0610    1.6805 H         1 <0>         0.0000
     30 H5          6.7904    1.3652    1.7405 H         1 <0>         0.0000
     31 H6          4.8938    2.9558    6.4233 H         1 <0>         0.0000
     32 H7          3.2274    3.3755    6.8506 H         1 <0>         0.0000
     33 H8          4.0436    0.6987    6.3466 H         1 <0>         0.0000
     34 H9          2.3812    1.2729    6.1400 H         1 <0>         0.0000
     35 H10         7.1953    4.2270    0.4884 H         1 <0>         0.0000
     36 H11         6.6591    5.7579    1.2050 H         1 <0>         0.0000
     37 H12         6.0669    4.2252    1.8839 H         1 <0>         0.0000
     38 H13         8.8098    5.4908    4.1672 H         1 <0>         0.0000
     39 H14         7.0548    5.1263    4.1492 H         1 <0>         0.0000
     40 H15         7.6918    6.5499    3.2873 H         1 <0>         0.0000
@<TRIPOS>BOND
     1    1    7 1
     2    1   15 3
     3    2    3 ar
     4    2    4 ar
     5    2   26 1
     6    3    5 ar
     7    3   27 1
     8    4    8 ar
     9    4   28 1
    10    5    9 ar
    11    5   29 1
    12    6   10 2
    13    6   17 1
    14    6   30 1
    15    7   16 2
    16    7   17 1
    17    8    9 ar
    18    8   11 1
    19    9   18 1
    20   10   16 1
    21   10   24 1
    22   11   12 1
    23   11   31 1
    24   11   32 1
    25   12   18 1
    26   12   33 1
    27   12   34 1
    28   13   19 1
    29   13   35 1
    30   13   36 1
    31   13   37 1
    32   14   19 1
    33   14   38 1
    34   14   39 1
    35   14   40 1
    36   17   25 1
    37   18   24 1
    38   19   25 1
    39   20   24 2
    40   21   24 2
    41   22   25 2
    42   23   25 2
