@<TRIPOS>MOLECULE
*****
   48    51     0     0     0
SMALL
NO_CHARGES

@<TRIPOS>ATOM
      1 C1          5.5851   -1.8515   -1.6260 C.ar      1 <0>         0.0000
      2 C2          6.0511   -2.3186    0.6897 C.ar      1 <0>         0.0000
      3 C3          3.4357   -1.0010    1.3378 C.ar      1 <0>         0.0000
      4 C4          2.6903   -1.9102   -0.7660 C.ar      1 <0>         0.0000
      5 C5          6.8278   -2.3754   -1.9853 C.ar      1 <0>         0.0000
      6 C6          7.3030   -2.8212    0.3487 C.ar      1 <0>         0.0000
      7 C7          2.1116   -0.8651    1.7521 C.ar      1 <0>         0.0000
      8 C8          1.3616   -1.7700   -0.3697 C.ar      1 <0>         0.0000
      9 C9          6.5187   -6.1286    0.8412 C.ar      1 <0>         0.0000
     10 C10         5.5372   -5.4438   -1.2697 C.ar      1 <0>         0.0000
     11 C11         0.8834   -3.0917    4.4074 C.ar      1 <0>         0.0000
     12 C12        -1.5396   -2.9416    4.5250 C.ar      1 <0>         0.0000
     13 C13         5.3015   -5.8872    1.4843 C.ar      1 <0>         0.0000
     14 C14         4.3200   -5.2055   -0.6307 C.ar      1 <0>         0.0000
     15 C15         0.9704   -2.8047    5.7718 C.ar      1 <0>         0.0000
     16 C16        -1.4542   -2.6456    5.8870 C.ar      1 <0>         0.0000
     17 C17         5.1494   -1.8670   -0.2902 C.ar      1 <0>         0.0000
     18 C18         3.7522   -1.5520    0.0844 C.ar      1 <0>         0.0000
     19 C19         7.6567   -2.9070   -0.9977 C.ar      1 <0>         0.0000
     20 C20         1.0836   -1.2671    0.9004 C.ar      1 <0>         0.0000
     21 C21         6.6341   -5.8764   -0.5262 C.ar      1 <0>         0.0000
     22 C22        -0.3693   -3.1624    3.7982 C.ar      1 <0>         0.0000
     23 C23         4.2162   -5.4067    0.7467 C.ar      1 <0>         0.0000
     24 C24        -0.1999   -2.5804    6.4994 C.ar      1 <0>         0.0000
     25 O1          8.8062   -3.5844   -1.4398 O.3       1 <0>         0.0000
     26 O2         -0.2241   -1.1250    1.3862 O.3       1 <0>         0.0000
     27 O3          7.8513   -6.0398   -1.2108 O.3       1 <0>         0.0000
     28 O4         -0.3847   -3.5159    2.4432 O.3       1 <0>         0.0000
     29 S1          9.1298   -5.0649   -0.6972 S.3       1 <0>         0.0000
     30 S2         -1.1932   -2.5014    1.3718 S.3       1 <0>         0.0000
     31 Cl1         2.7057   -5.0199    1.5535 Cl        1 <0>         0.0000
     32 Cl2        -0.0946   -2.2087    8.2132 Cl        1 <0>         0.0000
     33 H1          4.9340   -1.4599   -2.4025 H         1 <0>         0.0000
     34 H2          5.7425   -2.3531    1.7297 H         1 <0>         0.0000
     35 H3          4.2319   -0.6811    2.0038 H         1 <0>         0.0000
     36 H4          2.9047   -2.3488   -1.7362 H         1 <0>         0.0000
     37 H5          7.1403   -2.4265   -3.0239 H         1 <0>         0.0000
     38 H6          7.9553   -3.2311    1.1119 H         1 <0>         0.0000
     39 H7          1.8613   -0.4625    2.7289 H         1 <0>         0.0000
     40 H8          0.5514   -2.0884   -1.0186 H         1 <0>         0.0000
     41 H9          7.3781   -6.4786    1.4048 H         1 <0>         0.0000
     42 H10         5.6555   -5.2558   -2.3314 H         1 <0>         0.0000
     43 H11         1.7736   -3.2649    3.8110 H         1 <0>         0.0000
     44 H12        -2.5056   -2.9916    4.0322 H         1 <0>         0.0000
     45 H13         5.2009   -6.0601    2.5512 H         1 <0>         0.0000
     46 H14         3.4672   -4.8369   -1.1899 H         1 <0>         0.0000
     47 H15         1.9370   -2.7492    6.2624 H         1 <0>         0.0000
     48 H16        -2.3538   -2.4727    6.4690 H         1 <0>         0.0000
@<TRIPOS>BOND
     1    1    5 ar
     2    1   17 ar
     3    1   33 1
     4    2    6 ar
     5    2   17 ar
     6    2   34 1
     7    3    7 ar
     8    3   18 ar
     9    3   35 1
    10    4    8 ar
    11    4   18 ar
    12    4   36 1
    13    5   19 ar
    14    5   37 1
    15    6   19 ar
    16    6   38 1
    17    7   20 ar
    18    7   39 1
    19    8   20 ar
    20    8   40 1
    21    9   13 ar
    22    9   21 ar
    23    9   41 1
    24   10   14 ar
    25   10   21 ar
    26   10   42 1
    27   11   15 ar
    28   11   22 ar
    29   11   43 1
    30   12   16 ar
    31   12   22 ar
    32   12   44 1
    33   13   23 ar
    34   13   45 1
    35   14   23 ar
    36   14   46 1
    37   15   24 ar
    38   15   47 1
    39   16   24 ar
    40   16   48 1
    41   17   18 1
    42   19   25 1
    43   20   26 1
    44   21   27 1
    45   22   28 1
    46   23   31 1
    47   24   32 1
    48   25   29 1
    49   26   30 1
    50   27   29 1
    51   28   30 1
