@<TRIPOS>MOLECULE
*****
   34    36     0     0     0
SMALL
NO_CHARGES

@<TRIPOS>ATOM
      1 C1         -2.8888   -2.1666   -1.3702 C.ar      1 <0>         0.0000
      2 C2         -2.5427   -2.7267    0.9350 C.ar      1 <0>         0.0000
      3 C3         -1.8456   -1.2402   -1.2538 C.ar      1 <0>         0.0000
      4 C4         -3.2492   -2.9232   -0.2596 C.ar      1 <0>         0.0000
      5 C5         -1.1417   -1.1504   -0.0337 C.ar      1 <0>         0.0000
      6 C6         -3.8753    1.3390   -0.5975 C.3       1 <0>         0.0000
      7 C7         -4.3925    2.2052   -1.7260 C.3       1 <0>         0.0000
      8 C8         -0.0517    1.2012    0.2890 C.3       1 <0>         0.0000
      9 C9          0.3534    0.3271    1.4541 C.3       1 <0>         0.0000
     10 C10        -2.9998    1.6348   -1.7820 C.3       1 <0>         0.0000
     11 C11         0.0969   -0.3089    0.1149 C.3       1 <0>         0.0000
     12 C12         1.3067   -0.8481   -0.6424 C.3       1 <0>         0.0000
     13 C13        -1.5255   -0.3573   -2.4289 C.3       1 <0>         0.0000
     14 N1         -1.5158   -1.8821    1.0283 N.ar      1 <0>         0.0000
     15 N2         -2.7159    0.5520   -2.7672 N.4       1 <0>         0.0000
     16 Cl1        -4.5405   -4.0831   -0.3469 Cl        1 <0>         0.0000
     17 H1         -3.4163   -2.3190   -2.3113 H         1 <0>         0.0000
     18 H2         -2.8134   -3.2818    1.8309 H         1 <0>         0.0000
     19 H3         -3.5995    1.8061    0.3418 H         1 <0>         0.0000
     20 H4         -4.2853    0.3394   -0.4948 H         1 <0>         0.0000
     21 H5         -5.1544    1.7837   -2.3770 H         1 <0>         0.0000
     22 H6         -4.4759    3.2766   -1.5787 H         1 <0>         0.0000
     23 H7         -1.0523    1.6210    0.3241 H         1 <0>         0.0000
     24 H8          0.6973    1.8432   -0.1682 H         1 <0>         0.0000
     25 H9          1.3831    0.3733    1.7938 H         1 <0>         0.0000
     26 H10        -0.3752    0.1549    2.2383 H         1 <0>         0.0000
     27 H11        -2.1400    2.2864   -1.6768 H         1 <0>         0.0000
     28 H12         2.1709   -0.1933   -0.4993 H         1 <0>         0.0000
     29 H13         1.1326   -0.9352   -1.7214 H         1 <0>         0.0000
     30 H14         1.5727   -1.8425   -0.2706 H         1 <0>         0.0000
     31 H15        -0.6878    0.3080   -2.2328 H         1 <0>         0.0000
     32 H16        -1.3274   -0.9296   -3.3398 H         1 <0>         0.0000
     33 H17        -3.5533   -0.0330   -2.8699 H         1 <0>         0.0000
     34 H18        -2.5559    0.9810   -3.6874 H         1 <0>         0.0000
@<TRIPOS>BOND
     1    1    3 ar
     2    1    4 ar
     3    1   17 1
     4    2    4 ar
     5    2   14 ar
     6    2   18 1
     7    3    5 ar
     8    3   13 1
     9    4   16 1
    10    5   11 1
    11    5   14 ar
    12    6    7 1
    13    6   10 1
    14    6   19 1
    15    6   20 1
    16    7   10 1
    17    7   21 1
    18    7   22 1
    19    8    9 1
    20    8   11 1
    21    8   23 1
    22    8   24 1
    23    9   11 1
    24    9   25 1
    25    9   26 1
    26   10   15 1
    27   10   27 1
    28   11   12 1
    29   12   28 1
    30   12   29 1
    31   12   30 1
    32   13   15 1
    33   13   31 1
    34   13   32 1
    35   15   33 1
    36   15   34 1
