@<TRIPOS>MOLECULE
*****
   28    29     0     0     0
SMALL
NO_CHARGES

@<TRIPOS>ATOM
      1 C1          1.9359   -1.0333   -0.1388 C.ar      1 <0>         0.0000
      2 C2          0.8777   -0.4392    0.5524 C.ar      1 <0>         0.0000
      3 C3          2.9020   -1.6955    1.9545 C.ar      1 <0>         0.0000
      4 C4          2.9674   -1.6754    0.5558 C.ar      1 <0>         0.0000
      5 C5          0.8076   -0.4644    1.9509 C.ar      1 <0>         0.0000
      6 C6          1.8464   -1.1051    2.6562 C.ar      1 <0>         0.0000
      7 C7          0.8574   -2.2098    4.7358 C.2       1 <0>         0.0000
      8 C8          4.5284   -3.7269    0.0960 C.3       1 <0>         0.0000
      9 C9          3.8923   -3.3526   -1.2275 C.3       1 <0>         0.0000
     10 C10         4.1234   -2.2930   -0.1712 C.3       1 <0>         0.0000
     11 C11        -0.3658    0.1632    2.6660 C.3       1 <0>         0.0000
     12 C12         1.8355   -1.1795    4.1634 C.3       1 <0>         0.0000
     13 O1          0.1013   -2.8962    4.0950 O.2       1 <0>         0.0000
     14 O2          0.8842   -2.3139    6.1013 O.3       1 <0>         0.0000
     15 H1          1.9596   -1.0048   -1.2257 H         1 <0>         0.0000
     16 H2          0.0827    0.0495   -0.0068 H         1 <0>         0.0000
     17 H3          3.6955   -2.1964    2.5064 H         1 <0>         0.0000
     18 H4          3.9222   -4.2953    0.7954 H         1 <0>         0.0000
     19 H5          5.5870   -3.9700    0.1099 H         1 <0>         0.0000
     20 H6          4.5172   -3.3392   -2.1158 H         1 <0>         0.0000
     21 H7          2.8685   -3.6737   -1.3963 H         1 <0>         0.0000
     22 H8          4.9454   -1.6078   -0.3742 H         1 <0>         0.0000
     23 H9         -0.9537   -0.5927    3.1966 H         1 <0>         0.0000
     24 H10        -0.0450    0.9099    3.4026 H         1 <0>         0.0000
     25 H11        -1.0290    0.6672    1.9583 H         1 <0>         0.0000
     26 H12         1.5814   -0.2072    4.6058 H         1 <0>         0.0000
     27 H13         2.8377   -1.4301    4.5316 H         1 <0>         0.0000
     28 H14         1.5417   -1.6992    6.4693 H         1 <0>         0.0000
@<TRIPOS>BOND
     1    1    2 ar
     2    1    4 ar
     3    1   15 1
     4    2    5 ar
     5    2   16 1
     6    3    4 ar
     7    3    6 ar
     8    3   17 1
     9    4   10 1
    10    5    6 ar
    11    5   11 1
    12    6   12 1
    13    7   12 1
    14    7   13 2
    15    7   14 1
    16    8    9 1
    17    8   10 1
    18    8   18 1
    19    8   19 1
    20    9   10 1
    21    9   20 1
    22    9   21 1
    23   10   22 1
    24   11   23 1
    25   11   24 1
    26   11   25 1
    27   12   26 1
    28   12   27 1
    29   14   28 1
