@<TRIPOS>MOLECULE
*****
   23    24     0     0     0
SMALL
NO_CHARGES

@<TRIPOS>ATOM
      1 C1          0.5008   -0.8794    8.9874 C.1       1 <0>         0.0000
      2 C2          1.8700   -1.0650   -0.2021 C.ar      1 <0>         0.0000
      3 C3          0.6598   -1.2875    0.4627 C.ar      1 <0>         0.0000
      4 C4          3.0348   -0.7798    0.5293 C.ar      1 <0>         0.0000
      5 C5          0.6123   -1.2253    1.8561 C.ar      1 <0>         0.0000
      6 C6          2.9976   -0.7157    1.9182 C.ar      1 <0>         0.0000
      7 C7          1.4792   -0.7236    7.9867 C.2       1 <0>         0.0000
      8 C8          1.7773   -0.9401    2.5876 C.ar      1 <0>         0.0000
      9 C9          2.8487   -0.4267    8.1061 C.2       1 <0>         0.0000
     10 C10         2.4680   -0.6160    6.0130 C.2       1 <0>         0.0000
     11 N1         -0.2676   -0.9968    9.8617 N.1       1 <0>         0.0000
     12 N2          3.4388   -0.3642    6.8966 N.2       1 <0>         0.0000
     13 N3          1.6218   -0.9005    3.9881 N.2       1 <0>         0.0000
     14 N4          2.6804   -0.6420    4.6421 N.2       1 <0>         0.0000
     15 N5          1.2684   -0.8392    6.6188 N.pl3     1 <0>         0.0000
     16 O1          3.5662   -0.2163    9.2271 O.3       1 <0>         0.0000
     17 H1          1.9105   -1.1126   -1.2871 H         1 <0>         0.0000
     18 H2         -0.2413   -1.5081   -0.1025 H         1 <0>         0.0000
     19 H3          3.9717   -0.6080    0.0063 H         1 <0>         0.0000
     20 H4         -0.3144   -1.3941    2.3972 H         1 <0>         0.0000
     21 H5          3.8876   -0.4967    2.4981 H         1 <0>         0.0000
     22 H6          0.4060   -1.0477    6.1288 H         1 <0>         0.0000
     23 H7          2.9873   -0.2989   10.0038 H         1 <0>         0.0000
@<TRIPOS>BOND
     1    1    7 1
     2    1   11 3
     3    2    4 ar
     4    2    3 ar
     5    2   17 1
     6    3    5 ar
     7    3   18 1
     8    4    6 ar
     9    4   19 1
    10    5    8 ar
    11    5   20 1
    12    6    8 ar
    13    6   21 1
    14    7    9 2
    15    7   15 1
    16    8   13 1
    17    9   12 1
    18    9   16 1
    19   10   12 2
    20   10   14 1
    21   10   15 1
    22   13   14 2
    23   15   22 1
    24   16   23 1
