@<TRIPOS>MOLECULE
*****
   24    24     0     0     0
SMALL
NO_CHARGES

@<TRIPOS>ATOM
      1 C1          1.7345   -0.9706    0.0663 C.ar      1 <0>         0.0000
      2 C2          0.7080   -0.8374    2.2516 C.ar      1 <0>         0.0000
      3 C3          0.6290   -0.6565    0.8706 C.ar      1 <0>         0.0000
      4 C4          3.0229   -1.6429    2.0446 C.ar      1 <0>         0.0000
      5 C5          2.9092   -1.4559    0.6487 C.ar      1 <0>         0.0000
      6 C6          1.8985   -1.3191    2.7941 C.ar      1 <0>         0.0000
      7 C7          4.2939   -2.1699    2.6582 C.3       1 <0>         0.0000
      8 C8          3.9978   -1.6252   -1.4777 C.3       1 <0>         0.0000
      9 C9         -0.6314   -0.0896    0.2452 C.3       1 <0>         0.0000
     10 N1         -0.8814   -0.6617   -1.0872 N.3       1 <0>         0.0000
     11 O1          4.0322   -1.7880   -0.0628 O.3       1 <0>         0.0000
     12 F1          1.9511   -1.4881    4.1472 F         1 <0>         0.0000
     13 H1          1.6402   -0.8350   -1.0037 H         1 <0>         0.0000
     14 H2         -0.1272   -0.6156    2.9095 H         1 <0>         0.0000
     15 H3          5.1378   -1.5125    2.4246 H         1 <0>         0.0000
     16 H4          4.2011   -2.2494    3.7420 H         1 <0>         0.0000
     17 H5          4.5396   -3.1569    2.2529 H         1 <0>         0.0000
     18 H6          4.9777   -1.9425   -1.8374 H         1 <0>         0.0000
     19 H7          3.8286   -0.5778   -1.7548 H         1 <0>         0.0000
     20 H8          3.2212   -2.2514   -1.9328 H         1 <0>         0.0000
     21 H9         -1.4659   -0.2231    0.9517 H         1 <0>         0.0000
     22 H10        -0.5045    0.9928    0.1138 H         1 <0>         0.0000
     23 H11        -1.6865   -0.2047   -1.5117 H         1 <0>         0.0000
     24 H12        -1.1162   -1.6490   -0.9947 H         1 <0>         0.0000
@<TRIPOS>BOND
     1    1    3 ar
     2    1    5 ar
     3    1   13 1
     4    2    3 ar
     5    2    6 ar
     6    2   14 1
     7    3    9 1
     8    4    5 ar
     9    4    6 ar
    10    4    7 1
    11    5   11 1
    12    6   12 1
    13    7   15 1
    14    7   16 1
    15    7   17 1
    16    8   11 1
    17    8   18 1
    18    8   19 1
    19    8   20 1
    20    9   10 1
    21    9   21 1
    22    9   22 1
    23   10   23 1
    24   10   24 1
