@<TRIPOS>MOLECULE
*****
   35    36     0     0     0
SMALL
NO_CHARGES

@<TRIPOS>ATOM
      1 C1          1.8831    1.1058    5.2618 C.ar      1 <0>         0.0000
      2 C2          3.2430    1.5313    3.2893 C.ar      1 <0>         0.0000
      3 C3          2.7604    1.8681    6.0287 C.ar      1 <0>         0.0000
      4 C4          4.1101    2.3168    4.0437 C.ar      1 <0>         0.0000
      5 C5         -1.5426    3.2275    4.2933 C.ar      1 <0>         0.0000
      6 C6         -2.4955    1.3077    5.4250 C.ar      1 <0>         0.0000
      7 C7         -0.6674    2.4039    3.5799 C.ar      1 <0>         0.0000
      8 C8         -1.6595    0.4541    4.7049 C.ar      1 <0>         0.0000
      9 C9          2.1077    0.9582    3.8827 C.ar      1 <0>         0.0000
     10 C10        -0.7104    1.0132    3.8227 C.ar      1 <0>         0.0000
     11 C11        -2.4337    2.6929    5.2257 C.ar      1 <0>         0.0000
     12 C12         3.8495    2.4853    5.4064 C.ar      1 <0>         0.0000
     13 C13         0.2431    3.0329    2.5512 C.3       1 <0>         0.0000
     14 C14        -1.7190   -1.0403    4.9072 C.3       1 <0>         0.0000
     15 N1          1.3250    0.0964    3.0483 N.2       1 <0>         0.0000
     16 N2          0.0719    0.0683    3.0805 N.2       1 <0>         0.0000
     17 O1          4.7394    3.2121    7.7994 O.2       1 <0>         0.0000
     18 O2          6.2592    3.5085    5.7607 O.2       1 <0>         0.0000
     19 O3         -3.2434    3.5708    5.9008 O.3       1 <0>         0.0000
     20 O4          4.3184    5.0104    6.1220 O.3       1 <0>         0.0000
     21 S1          4.9455    3.5023    6.3805 S.o2      1 <0>         0.0000
     22 H1          1.0357    0.6227    5.7342 H         1 <0>         0.0000
     23 H2          3.4273    1.3560    2.2337 H         1 <0>         0.0000
     24 H3          2.6117    1.9777    7.0982 H         1 <0>         0.0000
     25 H4          4.9859    2.7741    3.5948 H         1 <0>         0.0000
     26 H5         -1.5500    4.3003    4.1211 H         1 <0>         0.0000
     27 H6         -3.2075    0.8886    6.1348 H         1 <0>         0.0000
     28 H7          1.1656    3.4022    3.0115 H         1 <0>         0.0000
     29 H8          0.5259    2.3308    1.7638 H         1 <0>         0.0000
     30 H9         -0.2547    3.8857    2.0818 H         1 <0>         0.0000
     31 H10        -1.7227   -1.5605    3.9448 H         1 <0>         0.0000
     32 H11        -0.8438   -1.4064    5.4572 H         1 <0>         0.0000
     33 H12        -2.6116   -1.3246    5.4700 H         1 <0>         0.0000
     34 H13        -3.8351    3.0736    6.4878 H         1 <0>         0.0000
     35 H14         3.8378    5.2725    6.9308 H         1 <0>         0.0000
@<TRIPOS>BOND
     1    1    3 ar
     2    1    9 ar
     3    1   22 1
     4    2    4 ar
     5    2    9 ar
     6    2   23 1
     7    3   12 ar
     8    3   24 1
     9    4   12 ar
    10    4   25 1
    11    5    7 ar
    12    5   11 ar
    13    5   26 1
    14    6    8 ar
    15    6   11 ar
    16    6   27 1
    17    7   10 ar
    18    7   13 1
    19    8   10 ar
    20    8   14 1
    21    9   15 1
    22   10   16 1
    23   11   19 1
    24   12   21 1
    25   13   28 1
    26   13   29 1
    27   13   30 1
    28   14   31 1
    29   14   32 1
    30   14   33 1
    31   15   16 2
    32   17   21 2
    33   18   21 2
    34   19   34 1
    35   20   21 1
    36   20   35 1
