@<TRIPOS>MOLECULE
*****
   25    25     0     0     0
SMALL
NO_CHARGES

@<TRIPOS>ATOM
      1 C1          0.8277    0.7474    3.0008 C.2       1 <0>         0.0000
      2 C2          0.7595    0.0100    1.8712 C.2       1 <0>         0.0000
      3 C3          2.7385   -0.8712    2.7599 C.2       1 <0>         0.0000
      4 C4          0.2031    0.1204   -0.5819 C.2       1 <0>         0.0000
      5 C5         -0.0041    1.1763   -2.6827 C.3       1 <0>         0.0000
      6 C6          4.8605   -4.0035    2.7954 C.3       1 <0>         0.0000
      7 C7         -0.3320    0.0392    0.8409 C.3       1 <0>         0.0000
      8 N1          3.8304   -1.5614    2.9418 N.2       1 <0>         0.0000
      9 N2          1.8206   -0.8845    1.7455 N.pl3     1 <0>         0.0000
     10 O1          1.0799   -0.6017   -1.0163 O.2       1 <0>         0.0000
     11 O2          3.2220   -3.0756    0.9149 O.2       1 <0>         0.0000
     12 O3          5.5427   -2.0781    1.1046 O.2       1 <0>         0.0000
     13 O4         -0.4311    1.0625   -1.3024 O.3       1 <0>         0.0000
     14 S1          2.2439    0.3349    3.9584 S.3       1 <0>         0.0000
     15 S2          4.3514   -2.6225    1.7632 S.o2      1 <0>         0.0000
     16 H1          0.1284    1.5011    3.3342 H         1 <0>         0.0000
     17 H2         -0.6237    1.9631   -3.1110 H         1 <0>         0.0000
     18 H3         -0.1598    0.2296   -3.2038 H         1 <0>         0.0000
     19 H4          1.0531    1.4452   -2.7264 H         1 <0>         0.0000
     20 H5          5.2831   -4.7529    2.1238 H         1 <0>         0.0000
     21 H6          5.6122   -3.6424    3.4972 H         1 <0>         0.0000
     22 H7          3.9855   -4.3936    3.3154 H         1 <0>         0.0000
     23 H8         -1.0074    0.8701    1.0439 H         1 <0>         0.0000
     24 H9         -0.9151   -0.8895    0.8965 H         1 <0>         0.0000
     25 H10         1.9510   -1.5027    0.9404 H         1 <0>         0.0000
@<TRIPOS>BOND
     1    1    2 2
     2    1   14 1
     3    1   16 1
     4    2    7 1
     5    2    9 1
     6    3    8 2
     7    3    9 1
     8    3   14 1
     9    4    7 1
    10    4   10 2
    11    4   13 1
    12    5   13 1
    13    5   17 1
    14    5   18 1
    15    5   19 1
    16    6   15 1
    17    6   20 1
    18    6   21 1
    19    6   22 1
    20    7   23 1
    21    7   24 1
    22    8   15 1
    23    9   25 1
    24   11   15 2
    25   12   15 2
