@<TRIPOS>MOLECULE
*****
   31    32     0     0     0
SMALL
NO_CHARGES

@<TRIPOS>ATOM
      1 C1          4.6299    2.3402    5.9719 C.ar      1 <0>         0.0000
      2 C2          4.8641    1.0697    6.5077 C.ar      1 <0>         0.0000
      3 C3          3.5151    2.5681    5.1550 C.ar      1 <0>         0.0000
      4 C4          1.4717   -1.1349    0.5036 C.ar      1 <0>         0.0000
      5 C5          2.6590   -1.4603    1.1558 C.ar      1 <0>         0.0000
      6 C6          0.3440   -0.7991    1.2465 C.ar      1 <0>         0.0000
      7 C7          3.9887    0.0168    6.2242 C.ar      1 <0>         0.0000
      8 C8          2.6289    1.5263    4.8753 C.ar      1 <0>         0.0000
      9 C9          2.7452   -1.4545    2.5533 C.ar      1 <0>         0.0000
     10 C10         0.3641   -0.7710    2.6506 C.ar      1 <0>         0.0000
     11 C11         2.8833    0.2616    5.4102 C.ar      1 <0>         0.0000
     12 C12         1.5857   -1.0983    3.2860 C.ar      1 <0>         0.0000
     13 C13         4.0752   -1.8189    3.1764 C.3       1 <0>         0.0000
     14 C14        -0.9320   -0.4021    3.3448 C.3       1 <0>         0.0000
     15 O1          2.3446   -2.3303    5.5589 O.2       1 <0>         0.0000
     16 O2          0.4302   -0.6725    5.6854 O.2       1 <0>         0.0000
     17 S1          1.7160   -1.0798    5.1028 S.o2      1 <0>         0.0000
     18 H1          5.3162    3.1545    6.1889 H         1 <0>         0.0000
     19 H2          5.7292    0.8954    7.1416 H         1 <0>         0.0000
     20 H3          3.3350    3.5561    4.7402 H         1 <0>         0.0000
     21 H4          1.4245   -1.1476   -0.5823 H         1 <0>         0.0000
     22 H5          3.5390   -1.7287    0.5774 H         1 <0>         0.0000
     23 H6         -0.5830   -0.5543    0.7352 H         1 <0>         0.0000
     24 H7          4.1546   -0.9827    6.6144 H         1 <0>         0.0000
     25 H8          1.7591    1.6941    4.2465 H         1 <0>         0.0000
     26 H9          4.5175   -0.9676    3.7026 H         1 <0>         0.0000
     27 H10         3.9730   -2.6282    3.9004 H         1 <0>         0.0000
     28 H11         4.7749   -2.1254    2.3958 H         1 <0>         0.0000
     29 H12        -1.2874   -1.2030    3.9953 H         1 <0>         0.0000
     30 H13        -0.8256    0.4797    3.9794 H         1 <0>         0.0000
     31 H14        -1.6958   -0.1994    2.5901 H         1 <0>         0.0000
@<TRIPOS>BOND
     1    1    3 ar
     2    1    2 ar
     3    1   18 1
     4    2    7 ar
     5    2   19 1
     6    3    8 ar
     7    3   20 1
     8    4    6 ar
     9    4    5 ar
    10    4   21 1
    11    5    9 ar
    12    5   22 1
    13    6   10 ar
    14    6   23 1
    15    7   11 ar
    16    7   24 1
    17    8   11 ar
    18    8   25 1
    19    9   12 ar
    20    9   13 1
    21   10   12 ar
    22   10   14 1
    23   11   17 1
    24   12   17 1
    25   13   26 1
    26   13   27 1
    27   13   28 1
    28   14   29 1
    29   14   30 1
    30   14   31 1
    31   15   17 2
    32   16   17 2
