@<TRIPOS>MOLECULE
*****
   22    22     0     0     0
SMALL
NO_CHARGES

@<TRIPOS>ATOM
      1 C1         -2.5322    2.7611    2.4789 C.ar      1 <0>         0.0000
      2 C2         -1.8107    3.8456    1.9745 C.ar      1 <0>         0.0000
      3 C3         -1.8425    1.5994    2.8373 C.ar      1 <0>         0.0000
      4 C4         -0.4228    3.7268    1.8415 C.ar      1 <0>         0.0000
      5 C5         -0.4573    1.6077    2.6753 C.ar      1 <0>         0.0000
      6 C6          0.6672   -0.6308    0.5986 C.3       1 <0>         0.0000
      7 C7          2.6404    0.5356    1.5424 C.3       1 <0>         0.0000
      8 N1          0.2522    2.6231    2.1875 N.ar      1 <0>         0.0000
      9 N2          1.4269   -0.2548    1.7949 N.pl3     1 <0>         0.0000
     10 O1          1.4389    0.5094    4.2064 O.2       1 <0>         0.0000
     11 O2         -0.4725   -0.9381    3.3253 O.2       1 <0>         0.0000
     12 S1          0.5108    0.1333    3.1423 S.o2      1 <0>         0.0000
     13 H1         -3.6118    2.8157    2.5905 H         1 <0>         0.0000
     14 H2         -2.3075    4.7665    1.6840 H         1 <0>         0.0000
     15 H3         -2.3406    0.7181    3.2261 H         1 <0>         0.0000
     16 H4          0.1699    4.5480    1.4429 H         1 <0>         0.0000
     17 H5         -0.1648   -1.2767    0.8794 H         1 <0>         0.0000
     18 H6          1.3334   -1.1929   -0.0618 H         1 <0>         0.0000
     19 H7          0.2904    0.2476    0.0540 H         1 <0>         0.0000
     20 H8          3.0958    0.8112    2.4923 H         1 <0>         0.0000
     21 H9          2.4241    1.4429    0.9663 H         1 <0>         0.0000
     22 H10         3.3390   -0.0976    0.9864 H         1 <0>         0.0000
@<TRIPOS>BOND
     1    1    2 ar
     2    1    3 ar
     3    1   13 1
     4    2    4 ar
     5    2   14 1
     6    3    5 ar
     7    3   15 1
     8    4    8 ar
     9    4   16 1
    10    5    8 ar
    11    5   12 1
    12    6    9 1
    13    6   17 1
    14    6   18 1
    15    6   19 1
    16    7    9 1
    17    7   20 1
    18    7   21 1
    19    7   22 1
    20    9   12 1
    21   10   12 2
    22   11   12 2
