@<TRIPOS>MOLECULE
*****
   20    20     0     0     0
SMALL
NO_CHARGES

@<TRIPOS>ATOM
      1 C1          1.8364   -1.0079   -0.2086 C.ar      1 <0>         0.0000
      2 C2          0.7627   -0.4345    0.4620 C.ar      1 <0>         0.0000
      3 C3          2.8794   -1.6073    0.5167 C.ar      1 <0>         0.0000
      4 C4          0.7212   -0.4549    1.8659 C.ar      1 <0>         0.0000
      5 C5          2.8481   -1.6329    1.9115 C.ar      1 <0>         0.0000
      6 C6          1.7514   -1.0473    2.5972 C.ar      1 <0>         0.0000
      7 C7          4.9296   -2.7871    2.0627 C.3       1 <0>         0.0000
      8 C8          0.7246   -0.5461    4.6906 C.3       1 <0>         0.0000
      9 O1          3.8109   -2.1902    2.7058 O.3       1 <0>         0.0000
     10 O2          1.8029   -1.1178    3.9614 O.3       1 <0>         0.0000
     11 H1          1.8778   -0.9973   -1.2942 H         1 <0>         0.0000
     12 H2         -0.0485    0.0313   -0.0906 H         1 <0>         0.0000
     13 H3          3.7113   -2.0511   -0.0184 H         1 <0>         0.0000
     14 H4         -0.1215   -0.0044    2.3781 H         1 <0>         0.0000
     15 H5          5.5672   -3.1634    2.8640 H         1 <0>         0.0000
     16 H6          5.4892   -2.0544    1.4673 H         1 <0>         0.0000
     17 H7          4.6249   -3.6221    1.4189 H         1 <0>         0.0000
     18 H8          0.9583   -0.7091    5.7437 H         1 <0>         0.0000
     19 H9         -0.2278   -1.0358    4.4501 H         1 <0>         0.0000
     20 H10         0.6373    0.5314    4.5008 H         1 <0>         0.0000
@<TRIPOS>BOND
     1    1    2 ar
     2    1    3 ar
     3    1   11 1
     4    2    4 ar
     5    2   12 1
     6    3    5 ar
     7    3   13 1
     8    4    6 ar
     9    4   14 1
    10    5    6 ar
    11    5    9 1
    12    6   10 1
    13    7    9 1
    14    7   15 1
    15    7   16 1
    16    7   17 1
    17    8   10 1
    18    8   18 1
    19    8   19 1
    20    8   20 1
