@<TRIPOS>MOLECULE
*****
   28    28     0     0     0
SMALL
NO_CHARGES

@<TRIPOS>ATOM
      1 C1          5.4742   -0.5111    1.7252 C.ar      1 <0>         0.0000
      2 C2          5.5387   -1.1654    4.0536 C.ar      1 <0>         0.0000
      3 C3          4.3227    0.2515    1.9510 C.ar      1 <0>         0.0000
      4 C4          6.0904   -1.2023    2.7712 C.ar      1 <0>         0.0000
      5 C5          3.7593    0.3081    3.2457 C.ar      1 <0>         0.0000
      6 C6          4.3763   -0.4228    4.2713 C.ar      1 <0>         0.0000
      7 C7          3.7168    1.0377    0.8114 C.2       1 <0>         0.0000
      8 C8          3.1886    1.3191   -1.6435 C.3       1 <0>         0.0000
      9 C9          2.6347   -0.8535   -0.4373 C.3       1 <0>         0.0000
     10 C10         1.4016    0.4494    3.2158 C.3       1 <0>         0.0000
     11 C11         3.6082    0.3388   -0.5467 C.3       1 <0>         0.0000
     12 O1          3.3076    2.1747    0.9820 O.2       1 <0>         0.0000
     13 O2          7.2327   -1.9049    2.4761 O.3       1 <0>         0.0000
     14 O3          2.6562    1.0645    3.5303 O.3       1 <0>         0.0000
     15 Cl1         3.6788   -0.4065    5.8763 Cl        1 <0>         0.0000
     16 H1          5.9337   -0.5591    0.7441 H         1 <0>         0.0000
     17 H2          5.9954   -1.7049    4.8795 H         1 <0>         0.0000
     18 H3          2.2019    1.7408   -1.4320 H         1 <0>         0.0000
     19 H4          3.1479    0.8069   -2.6105 H         1 <0>         0.0000
     20 H5          3.8908    2.1535   -1.7205 H         1 <0>         0.0000
     21 H6          1.6217   -0.5042   -0.2089 H         1 <0>         0.0000
     22 H7          2.9387   -1.5600    0.3404 H         1 <0>         0.0000
     23 H8          2.5948   -1.3926   -1.3890 H         1 <0>         0.0000
     24 H9          0.6307    1.1606    3.5161 H         1 <0>         0.0000
     25 H10         1.2766   -0.4886    3.7703 H         1 <0>         0.0000
     26 H11         1.3161    0.2557    2.1403 H         1 <0>         0.0000
     27 H12         4.5952   -0.0700   -0.7953 H         1 <0>         0.0000
     28 H13         7.5718   -2.3245    3.2826 H         1 <0>         0.0000
@<TRIPOS>BOND
     1    1    3 ar
     2    1    4 ar
     3    1   16 1
     4    2    4 ar
     5    2    6 ar
     6    2   17 1
     7    3    5 ar
     8    3    7 1
     9    4   13 1
    10    5    6 ar
    11    5   14 1
    12    6   15 1
    13    7   11 1
    14    7   12 2
    15    8   11 1
    16    8   18 1
    17    8   19 1
    18    8   20 1
    19    9   11 1
    20    9   21 1
    21    9   22 1
    22    9   23 1
    23   10   14 1
    24   10   24 1
    25   10   25 1
    26   10   26 1
    27   11   27 1
    28   13   28 1
