@<TRIPOS>MOLECULE
*****
   22    22     0     0     0
SMALL
NO_CHARGES

@<TRIPOS>ATOM
      1 C1          1.6623   -0.0166   -1.1771 C.ar      1 <0>         0.0000
      2 C2          0.5925    0.3383   -0.3952 C.ar      1 <0>         0.0000
      3 C3          1.7077   -0.5645    1.5878 C.ar      1 <0>         0.0000
      4 C4          2.8548   -0.6682   -0.6445 C.ar      1 <0>         0.0000
      5 C5          0.6047    0.0699    0.9989 C.ar      1 <0>         0.0000
      6 C6          2.7861   -0.9246    0.7953 C.ar      1 <0>         0.0000
      7 N1         -0.5092    2.2945    2.0644 N.pl3     1 <0>         0.0000
      8 N2          3.7325   -1.9005    3.1527 N.pl3     1 <0>         0.0000
      9 O1          3.8401   -0.9738   -1.3529 O.3       1 <0>         0.0000
     10 O2         -2.0273    0.4460    1.3069 O.2       1 <0>         0.0000
     11 O3         -0.5761    0.0220    3.3523 O.2       1 <0>         0.0000
     12 O4          4.3276   -3.1120    0.9763 O.2       1 <0>         0.0000
     13 O5          5.3730   -0.8498    1.5281 O.2       1 <0>         0.0000
     14 S1         -0.7306    0.5809    1.9934 S.o2      1 <0>         0.0000
     15 S2          4.2023   -1.7419    1.4979 S.o2      1 <0>         0.0000
     16 H1          1.6625    0.1805   -2.2463 H         1 <0>         0.0000
     17 H2         -0.2774    0.8238   -0.8308 H         1 <0>         0.0000
     18 H3          1.7112   -0.7749    2.6506 H         1 <0>         0.0000
     19 H4         -1.3505    2.6801    2.4994 H         1 <0>         0.0000
     20 H5          0.2900    2.4822    2.6721 H         1 <0>         0.0000
     21 H6          3.6091   -2.8937    3.3436 H         1 <0>         0.0000
     22 H7          4.5025   -1.5321    3.7089 H         1 <0>         0.0000
@<TRIPOS>BOND
     1    1    2 ar
     2    1    4 ar
     3    1   16 1
     4    2    5 ar
     5    2   17 1
     6    3    5 ar
     7    3    6 ar
     8    3   18 1
     9    4    6 ar
    10    4    9 1
    11    5   14 1
    12    6   15 1
    13    7   14 1
    14    7   19 1
    15    7   20 1
    16    8   15 1
    17    8   21 1
    18    8   22 1
    19   10   14 2
    20   11   14 2
    21   12   15 2
    22   13   15 2
