@<TRIPOS>MOLECULE
*****
   34    35     0     0     0
SMALL
NO_CHARGES

@<TRIPOS>ATOM
      1 C1         -1.6419    1.6255   -1.1562 C.ar      1 <0>         0.0000
      2 C2         -1.4618    2.3117    0.0511 C.ar      1 <0>         0.0000
      3 C3         -0.9744    0.4209   -1.3640 C.ar      1 <0>         0.0000
      4 C4         -0.5860    1.8020    1.0053 C.ar      1 <0>         0.0000
      5 C5         -0.1275   -0.1446   -0.3935 C.ar      1 <0>         0.0000
      6 C6          0.0891    0.5879    0.7883 C.ar      1 <0>         0.0000
      7 C7          1.5731   -2.0077    0.2642 C.3       1 <0>         0.0000
      8 C8          2.3509   -0.8826    0.9368 C.3       1 <0>         0.0000
      9 C9          0.4623   -1.5256   -0.6991 C.3       1 <0>         0.0000
     10 C10        -0.7104   -2.5414   -0.7467 C.3       1 <0>         0.0000
     11 C11        -1.8587   -4.6759   -1.3377 C.3       1 <0>         0.0000
     12 C12        -0.4777   -3.9758   -1.2702 C.3       1 <0>         0.0000
     13 C13         0.1996   -3.9733   -2.6581 C.3       1 <0>         0.0000
     14 O1         -1.7830   -6.0744   -1.5160 O.3       1 <0>         0.0000
     15 O2          0.2959   -4.7946   -0.3938 O.3       1 <0>         0.0000
     16 F1          1.5151   -3.6073   -2.5524 F         1 <0>         0.0000
     17 F2         -0.3940   -3.0794   -3.4901 F         1 <0>         0.0000
     18 F3          0.1891   -5.1660   -3.2698 F         1 <0>         0.0000
     19 S1          1.2522    0.0741    2.0356 S.3       1 <0>         0.0000
     20 H1         -2.2915    2.0288   -1.9282 H         1 <0>         0.0000
     21 H2         -1.9754    3.2518    0.2341 H         1 <0>         0.0000
     22 H3         -1.1144   -0.1060   -2.3061 H         1 <0>         0.0000
     23 H4         -0.3968    2.3557    1.9216 H         1 <0>         0.0000
     24 H5          2.2810   -2.6300   -0.2986 H         1 <0>         0.0000
     25 H6          1.1395   -2.6269    1.0558 H         1 <0>         0.0000
     26 H7          3.1441   -1.2837    1.5732 H         1 <0>         0.0000
     27 H8          2.8030   -0.2030    0.2075 H         1 <0>         0.0000
     28 H9          0.8973   -1.4482   -1.6995 H         1 <0>         0.0000
     29 H10        -1.1032   -2.6495    0.2696 H         1 <0>         0.0000
     30 H11        -1.5186   -2.1153   -1.3459 H         1 <0>         0.0000
     31 H12        -2.3839   -4.4244   -0.4053 H         1 <0>         0.0000
     32 H13        -2.4375   -4.2739   -2.1728 H         1 <0>         0.0000
     33 H14        -1.0991   -6.4014   -0.9068 H         1 <0>         0.0000
     34 H15         1.1992   -4.4466   -0.3326 H         1 <0>         0.0000
@<TRIPOS>BOND
     1    1    2 ar
     2    1    3 ar
     3    1   20 1
     4    2    4 ar
     5    2   21 1
     6    3    5 ar
     7    3   22 1
     8    4    6 ar
     9    4   23 1
    10    5    6 ar
    11    5    9 1
    12    6   19 1
    13    7    8 1
    14    7    9 1
    15    7   24 1
    16    7   25 1
    17    8   19 1
    18    8   26 1
    19    8   27 1
    20    9   10 1
    21    9   28 1
    22   10   12 1
    23   10   29 1
    24   10   30 1
    25   11   12 1
    26   11   14 1
    27   11   31 1
    28   11   32 1
    29   12   13 1
    30   12   15 1
    31   13   16 1
    32   13   17 1
    33   13   18 1
    34   14   33 1
    35   15   34 1
