@<TRIPOS>MOLECULE
*****
   45    49     0     0     0
SMALL
NO_CHARGES

@<TRIPOS>ATOM
      1 C1         -1.9355    5.8007    0.2349 C.ar      1 <0>         0.0000
      2 C2          0.3597    4.9359    0.2685 C.ar      1 <0>         0.0000
      3 C3         -2.2788    4.6145   -0.4377 C.ar      1 <0>         0.0000
      4 C4         -0.6007    5.9254    0.5737 C.ar      1 <0>         0.0000
      5 C5         -3.4512    3.9916   -0.9849 C.2       1 <0>         0.0000
      6 C6         -7.2797    5.3893   -1.0277 C.ar      1 <0>         0.0000
      7 C7         -1.2366    3.6877   -0.7002 C.ar      1 <0>         0.0000
      8 C8         -6.2331    6.1520   -0.4560 C.ar      1 <0>         0.0000
      9 C9         -4.8226    4.5103   -0.9913 C.ar      1 <0>         0.0000
     10 C10        -8.1309    7.4330   -0.1932 C.2       1 <0>         0.0000
     11 C11        -2.6176   -0.1615   -0.1543 C.3       1 <0>         0.0000
     12 C12        -0.7923   -1.0944   -0.9483 C.3       1 <0>         0.0000
     13 C13        -1.2165    0.3659   -0.5976 C.3       1 <0>         0.0000
     14 C14        -8.5855    6.1384   -0.9115 C.3       1 <0>         0.0000
     15 C15        -2.0241   -1.5740   -0.1701 C.3       1 <0>         0.0000
     16 C16        -9.1805    6.4923   -2.2876 C.3       1 <0>         0.0000
     17 C17        -9.6114    5.3930   -0.0370 C.3       1 <0>         0.0000
     18 C18        -1.1793    1.3750   -1.7383 C.3       1 <0>         0.0000
     19 N1          0.0549    3.8069   -0.3704 N.ar      1 <0>         0.0000
     20 N2         -3.1389    2.8081   -1.5229 N.2       1 <0>         0.0000
     21 N3         -7.0501    4.2102   -1.5575 N.ar      1 <0>         0.0000
     22 N4         -4.9858    5.7441   -0.4190 N.ar      1 <0>         0.0000
     23 N5         -5.7781    3.7502   -1.5406 N.ar      1 <0>         0.0000
     24 N6         -1.8114    2.6326   -1.3661 N.pl3     1 <0>         0.0000
     25 N7         -6.7460    7.3398    0.0275 N.am      1 <0>         0.0000
     26 O1         -8.8191    8.3775    0.1340 O.2       1 <0>         0.0000
     27 F1         -0.1741    7.0351    1.2282 F         1 <0>         0.0000
     28 F2         -2.7768   -2.5590   -0.7547 F         1 <0>         0.0000
     29 F3         -1.7008   -2.0250    1.0919 F         1 <0>         0.0000
     30 H1         -2.6632    6.5662    0.4755 H         1 <0>         0.0000
     31 H2          1.3954    5.0908    0.5630 H         1 <0>         0.0000
     32 H3         -3.0074    0.1783    0.8063 H         1 <0>         0.0000
     33 H4         -3.3782   -0.0328   -0.9275 H         1 <0>         0.0000
     34 H5         -0.8930   -1.3181   -2.0139 H         1 <0>         0.0000
     35 H6          0.1720   -1.4491   -0.5806 H         1 <0>         0.0000
     36 H7         -0.6475    0.7503    0.2524 H         1 <0>         0.0000
     37 H8        -10.0600    7.1282   -2.1574 H         1 <0>         0.0000
     38 H9         -9.4700    5.5740   -2.8051 H         1 <0>         0.0000
     39 H10        -8.4562    7.0243   -2.9120 H         1 <0>         0.0000
     40 H11       -10.4945    6.0197    0.1122 H         1 <0>         0.0000
     41 H12        -9.1942    5.1413    0.9429 H         1 <0>         0.0000
     42 H13        -9.9050    4.4645   -0.5333 H         1 <0>         0.0000
     43 H14        -1.7145    0.9972   -2.6128 H         1 <0>         0.0000
     44 H15        -0.1470    1.5964   -2.0220 H         1 <0>         0.0000
     45 H16        -6.2060    8.0679    0.4834 H         1 <0>         0.0000
@<TRIPOS>BOND
     1    1    3 ar
     2    1    4 ar
     3    1   30 1
     4    2    4 ar
     5    2   19 ar
     6    2   31 1
     7    3    5 1
     8    3    7 ar
     9    4   27 1
    10    5    9 1
    11    5   20 2
    12    6    8 ar
    13    6   14 1
    14    6   21 ar
    15    7   19 ar
    16    7   24 1
    17    8   22 ar
    18    8   25 1
    19    9   22 ar
    20    9   23 ar
    21   10   14 1
    22   10   25 am
    23   10   26 2
    24   11   13 1
    25   11   15 1
    26   11   32 1
    27   11   33 1
    28   12   13 1
    29   12   15 1
    30   12   34 1
    31   12   35 1
    32   13   18 1
    33   13   36 1
    34   14   16 1
    35   14   17 1
    36   15   28 1
    37   15   29 1
    38   16   37 1
    39   16   38 1
    40   16   39 1
    41   17   40 1
    42   17   41 1
    43   17   42 1
    44   18   24 1
    45   18   43 1
    46   18   44 1
    47   20   24 1
    48   21   23 ar
    49   25   45 1
