@<TRIPOS>MOLECULE
*****
   25    26     0     0     0
SMALL
NO_CHARGES

@<TRIPOS>ATOM
      1 C1          0.5102   -1.2431   -3.0635 C.2       1 <0>         0.0000
      2 C2          0.9812   -0.9241   -4.3874 C.2       1 <0>         0.0000
      3 C3          0.9211   -0.2250   -2.2524 C.2       1 <0>         0.0000
      4 C4          1.6424    0.2679   -4.2956 C.2       1 <0>         0.0000
      5 C5          0.2867   -0.8983    1.3675 C.3       1 <0>         0.0000
      6 C6         -0.8989    0.0477    1.5285 C.3       1 <0>         0.0000
      7 C7         -0.4804    0.9998   -0.5786 C.3       1 <0>         0.0000
      8 C8          0.7308    0.0750   -0.8018 C.3       1 <0>         0.0000
      9 C9          2.3555    1.1313   -5.2782 C.3       1 <0>         0.0000
     10 N1          0.4882   -1.1705   -0.0612 N.3       1 <0>         0.0000
     11 O1          1.6145    0.7074   -2.9909 O.3       1 <0>         0.0000
     12 O2         -0.6864    1.2614    0.8068 O.3       1 <0>         0.0000
     13 H1         -0.0616   -2.1052   -2.7490 H         1 <0>         0.0000
     14 H2          0.8462   -1.5063   -5.2898 H         1 <0>         0.0000
     15 H3          1.1725   -0.4372    1.8388 H         1 <0>         0.0000
     16 H4          0.0762   -1.8416    1.8833 H         1 <0>         0.0000
     17 H5         -1.8152   -0.4447    1.1687 H         1 <0>         0.0000
     18 H6         -1.0333    0.3308    2.5757 H         1 <0>         0.0000
     19 H7         -0.3139    1.9663   -1.0592 H         1 <0>         0.0000
     20 H8         -1.3713    0.5251   -1.0158 H         1 <0>         0.0000
     21 H9          1.6225    0.6135   -0.4332 H         1 <0>         0.0000
     22 H10         1.9095    2.1311   -5.3287 H         1 <0>         0.0000
     23 H11         3.4119    1.2517   -5.0121 H         1 <0>         0.0000
     24 H12         2.3008    0.6805   -6.2718 H         1 <0>         0.0000
     25 H13         1.2811   -1.7951   -0.1916 H         1 <0>         0.0000
@<TRIPOS>BOND
     1    1    2 1
     2    1    3 2
     3    1   13 1
     4    2    4 2
     5    2   14 1
     6    3    8 1
     7    3   11 1
     8    4    9 1
     9    4   11 1
    10    5    6 1
    11    5   10 1
    12    5   15 1
    13    5   16 1
    14    6   12 1
    15    6   17 1
    16    6   18 1
    17    7    8 1
    18    7   12 1
    19    7   19 1
    20    7   20 1
    21    8   10 1
    22    8   21 1
    23    9   22 1
    24    9   23 1
    25    9   24 1
    26   10   25 1
