@<TRIPOS>MOLECULE
*****
   14    14     0     0     0
SMALL
NO_CHARGES

@<TRIPOS>ATOM
      1 C1          1.8081   -1.0741    0.0064 C.ar      1 <0>         0.0000
      2 C2          2.9440   -1.6723    2.0966 C.ar      1 <0>         0.0000
      3 C3          0.7959   -0.4702    0.7433 C.ar      1 <0>         0.0000
      4 C4          1.8892   -1.0451    2.7904 C.ar      1 <0>         0.0000
      5 C5          0.8097   -0.4398    2.1407 C.ar      1 <0>         0.0000
      6 C6          2.8662   -1.6652    0.6893 C.ar      1 <0>         0.0000
      7 C7          4.0819   -2.3071    2.8265 C.2       1 <0>         0.0000
      8 O1          4.1965   -2.3614    4.0365 O.2       1 <0>         0.0000
      9 F1         -0.2254    0.1009    0.0906 F         1 <0>         0.0000
     10 F2          1.8974   -1.0121    4.1216 F         1 <0>         0.0000
     11 Cl1        -0.4626    0.3194    3.0324 Cl        1 <0>         0.0000
     12 Br1         4.2210   -2.4781   -0.3985 Br        1 <0>         0.0000
     13 H1          1.7521   -1.0720   -1.0762 H         1 <0>         0.0000
     14 H2          4.8495   -2.7446    2.1644 H         1 <0>         0.0000
@<TRIPOS>BOND
     1    1    3 ar
     2    1    6 ar
     3    1   13 1
     4    2    4 ar
     5    2    6 ar
     6    2    7 1
     7    3    5 ar
     8    3    9 1
     9    4    5 ar
    10    4   10 1
    11    5   11 1
    12    6   12 1
    13    7    8 2
    14    7   14 1
