@<TRIPOS>MOLECULE
*****
   12    12     0     0     0
SMALL
NO_CHARGES

@<TRIPOS>ATOM
      1 C1          0.0649   -0.0312   -2.0621 C.2       1 <0>         0.0000
      2 C2          0.3197   -0.1429   -0.5871 C.3       1 <0>         0.0000
      3 C3         -0.1703    1.1399    0.0663 C.3       1 <0>         0.0000
      4 N1          0.2750    0.4927   -4.1133 N.2       1 <0>         0.0000
      5 N2          0.9148    0.5552   -2.9249 N.2       1 <0>         0.0000
      6 N3         -1.0707   -0.4390   -2.6574 N.2       1 <0>         0.0000
      7 N4         -0.9049   -0.0983   -3.9543 N.2       1 <0>         0.0000
      8 Br1         0.1018    1.1367    2.0748 Br        1 <0>         0.0000
      9 H1          1.3884   -0.2735   -0.3932 H         1 <0>         0.0000
     10 H2         -0.2200   -1.0003   -0.1753 H         1 <0>         0.0000
     11 H3          0.3778    2.0140   -0.2794 H         1 <0>         0.0000
     12 H4         -1.2416    1.2838   -0.0603 H         1 <0>         0.0000
@<TRIPOS>BOND
     1    1    2 1
     2    1    5 2
     3    1    6 1
     4    2    3 1
     5    2    9 1
     6    2   10 1
     7    3    8 1
     8    3   11 1
     9    3   12 1
    10    4    5 1
    11    4    7 1
    12    6    7 2
