@<TRIPOS>MOLECULE
*****
   22    23     0     0     0
SMALL
NO_CHARGES

@<TRIPOS>ATOM
      1 C1          1.9370   -0.9436   -0.1433 C.ar      1 <0>         0.0000
      2 C2          2.9534   -1.5794    0.5781 C.ar      1 <0>         0.0000
      3 C3          0.8337   -0.4095    0.5315 C.ar      1 <0>         0.0000
      4 C4          0.4784   -3.3087    6.6744 C.ar      1 <0>         0.0000
      5 C5         -0.0771   -4.3434    5.9048 C.ar      1 <0>         0.0000
      6 C6          2.8701   -1.6843    1.9697 C.ar      1 <0>         0.0000
      7 C7          0.7424   -0.5100    1.9229 C.ar      1 <0>         0.0000
      8 C8          1.0859   -2.2365    6.0334 C.ar      1 <0>         0.0000
      9 C9          0.0089   -4.2434    4.5189 C.ar      1 <0>         0.0000
     10 C10         1.7636   -1.1475    2.6249 C.ar      1 <0>         0.0000
     11 C11         1.1101   -2.2490    4.6272 C.ar      1 <0>         0.0000
     12 N1          0.5929   -3.2135    3.8804 N.ar      1 <0>         0.0000
     13 O1          1.7155   -1.1791    4.0234 O.3       1 <0>         0.0000
     14 H1          2.0053   -0.8629   -1.2249 H         1 <0>         0.0000
     15 H2          3.8132   -1.9940    0.0584 H         1 <0>         0.0000
     16 H3          0.0427    0.0868   -0.0245 H         1 <0>         0.0000
     17 H4          0.4363   -3.3414    7.7601 H         1 <0>         0.0000
     18 H5         -0.5604   -5.1984    6.3671 H         1 <0>         0.0000
     19 H6          3.6476   -2.1755    2.5475 H         1 <0>         0.0000
     20 H7         -0.1065   -0.1037    2.4649 H         1 <0>         0.0000
     21 H8          1.5322   -1.4083    6.5742 H         1 <0>         0.0000
     22 H9         -0.4065   -5.0198    3.8785 H         1 <0>         0.0000
@<TRIPOS>BOND
     1    1    3 ar
     2    1    2 ar
     3    1   14 1
     4    2    6 ar
     5    2   15 1
     6    3    7 ar
     7    3   16 1
     8    4    5 ar
     9    4    8 ar
    10    4   17 1
    11    5    9 ar
    12    5   18 1
    13    6   10 ar
    14    6   19 1
    15    7   10 ar
    16    7   20 1
    17    8   11 ar
    18    8   21 1
    19    9   12 ar
    20    9   22 1
    21   10   13 1
    22   11   12 ar
    23   11   13 1
