@<TRIPOS>MOLECULE
*****
   48    51     0     0     0
SMALL
NO_CHARGES

@<TRIPOS>ATOM
      1 C1          4.7473   -1.9609   -2.8783 C.ar      1 <0>         0.0000
      2 C2          6.5253   -0.9494   -1.5985 C.ar      1 <0>         0.0000
      3 C3          4.4105   -0.6499    0.5489 C.ar      1 <0>         0.0000
      4 C4          2.8908   -0.1914   -1.2637 C.ar      1 <0>         0.0000
      5 C5          5.6860   -2.5665   -3.7117 C.ar      1 <0>         0.0000
      6 C6          7.4742   -1.5537   -2.4230 C.ar      1 <0>         0.0000
      7 C7          3.4603   -0.2194    1.4755 C.ar      1 <0>         0.0000
      8 C8          1.9327    0.2514   -0.3533 C.ar      1 <0>         0.0000
      9 C9          6.6616   -4.6234   -1.0674 C.ar      1 <0>         0.0000
     10 C10         5.2407   -5.7827   -2.6562 C.ar      1 <0>         0.0000
     11 C11         1.3339   -0.7328    6.3614 C.ar      1 <0>         0.0000
     12 C12        -0.0979   -0.9090    4.4040 C.ar      1 <0>         0.0000
     13 C13         5.5472   -4.3549   -0.2720 C.ar      1 <0>         0.0000
     14 C14         4.1271   -5.5275   -1.8530 C.ar      1 <0>         0.0000
     15 C15         0.4353   -1.5098    7.0949 C.ar      1 <0>         0.0000
     16 C16        -1.0012   -1.6787    5.1418 C.ar      1 <0>         0.0000
     17 C17         5.1491   -1.1713   -1.7880 C.ar      1 <0>         0.0000
     18 C18         4.1475   -0.6490   -0.8311 C.ar      1 <0>         0.0000
     19 C19         7.0433   -2.3918   -3.4510 C.ar      1 <0>         0.0000
     20 C20         2.2241    0.2325    1.0116 C.ar      1 <0>         0.0000
     21 C21         6.4947   -5.3046   -2.2738 C.ar      1 <0>         0.0000
     22 C22         1.0608   -0.4372    5.0247 C.ar      1 <0>         0.0000
     23 C23         4.2847   -4.7912   -0.6773 C.ar      1 <0>         0.0000
     24 C24        -0.7289   -1.9743    6.4788 C.ar      1 <0>         0.0000
     25 O1          7.9555   -3.1413   -4.2161 O.3       1 <0>         0.0000
     26 O2          1.1870    0.6300    1.8665 O.3       1 <0>         0.0000
     27 O3          7.5363   -5.5372   -3.1883 O.3       1 <0>         0.0000
     28 O4          2.0391    0.2972    4.3446 O.3       1 <0>         0.0000
     29 S1          8.7352   -4.3656   -3.3542 S.3       1 <0>         0.0000
     30 S2          1.5565    1.4893    3.2601 S.3       1 <0>         0.0000
     31 Cl1         2.8800   -4.3798    0.2912 Cl        1 <0>         0.0000
     32 Cl2        -1.8645   -2.9484    7.3993 Cl        1 <0>         0.0000
     33 H1          3.6927   -2.1687   -3.0320 H         1 <0>         0.0000
     34 H2          6.8578   -0.2992   -0.7941 H         1 <0>         0.0000
     35 H3          5.3597   -1.0335    0.9123 H         1 <0>         0.0000
     36 H4          2.6679   -0.1536   -2.3262 H         1 <0>         0.0000
     37 H5          5.3812   -3.2308   -4.5138 H         1 <0>         0.0000
     38 H6          8.5370   -1.4088   -2.2519 H         1 <0>         0.0000
     39 H7          3.6678   -0.2605    2.5391 H         1 <0>         0.0000
     40 H8          0.9658    0.6180   -0.6848 H         1 <0>         0.0000
     41 H9          7.6382   -4.2548   -0.7752 H         1 <0>         0.0000
     42 H10         5.1411   -6.3173   -3.5958 H         1 <0>         0.0000
     43 H11         2.2435   -0.3524    6.8162 H         1 <0>         0.0000
     44 H12        -0.2915   -0.6902    3.3597 H         1 <0>         0.0000
     45 H13         5.6571   -3.7938    0.6500 H         1 <0>         0.0000
     46 H14         3.1431   -5.8732   -2.1533 H         1 <0>         0.0000
     47 H15         0.6338   -1.7449    8.1357 H         1 <0>         0.0000
     48 H16        -1.9059   -2.0547    4.6748 H         1 <0>         0.0000
@<TRIPOS>BOND
     1    1    5 ar
     2    1   17 ar
     3    1   33 1
     4    2    6 ar
     5    2   17 ar
     6    2   34 1
     7    3    7 ar
     8    3   18 ar
     9    3   35 1
    10    4    8 ar
    11    4   18 ar
    12    4   36 1
    13    5   19 ar
    14    5   37 1
    15    6   19 ar
    16    6   38 1
    17    7   20 ar
    18    7   39 1
    19    8   20 ar
    20    8   40 1
    21    9   13 ar
    22    9   21 ar
    23    9   41 1
    24   10   14 ar
    25   10   21 ar
    26   10   42 1
    27   11   15 ar
    28   11   22 ar
    29   11   43 1
    30   12   16 ar
    31   12   22 ar
    32   12   44 1
    33   13   23 ar
    34   13   45 1
    35   14   23 ar
    36   14   46 1
    37   15   24 ar
    38   15   47 1
    39   16   24 ar
    40   16   48 1
    41   17   18 1
    42   19   25 1
    43   20   26 1
    44   21   27 1
    45   22   28 1
    46   23   31 1
    47   24   32 1
    48   25   29 1
    49   26   30 1
    50   27   29 1
    51   28   30 1
