@<TRIPOS>MOLECULE
*****
   20    20     0     0     0
SMALL
NO_CHARGES

@<TRIPOS>ATOM
      1 C1         -0.9847    3.5128    2.1808 C.2       1 <0>         0.0000
      2 C2          0.0933    2.6538    2.5480 C.2       1 <0>         0.0000
      3 C3         -2.1179    2.8167    1.8331 C.2       1 <0>         0.0000
      4 C4         -0.2569    1.3262    2.4705 C.2       1 <0>         0.0000
      5 C5          0.5835   -1.0388    0.2994 C.3       1 <0>         0.0000
      6 C6          2.3977    0.5820    0.7172 C.3       1 <0>         0.0000
      7 N1          1.5046   -0.4408    1.2738 N.pl3     1 <0>         0.0000
      8 O1          1.9174    0.4458    3.6030 O.2       1 <0>         0.0000
      9 O2         -0.0111   -1.1868    3.1545 O.2       1 <0>         0.0000
     10 S1         -1.9028    1.1053    1.9553 S.3       1 <0>         0.0000
     11 S2          0.8252   -0.0517    2.7693 S.o2      1 <0>         0.0000
     12 H1         -0.9274    4.5962    2.1862 H         1 <0>         0.0000
     13 H2          1.0728    2.9818    2.8778 H         1 <0>         0.0000
     14 H3         -3.0782    3.2156    1.5300 H         1 <0>         0.0000
     15 H4         -0.0210   -1.8011    0.7898 H         1 <0>         0.0000
     16 H5          1.1850   -1.5174   -0.4780 H         1 <0>         0.0000
     17 H6         -0.0722   -0.2914   -0.1713 H         1 <0>         0.0000
     18 H7          3.0857    0.9239    1.4899 H         1 <0>         0.0000
     19 H8          1.8443    1.4399    0.3061 H         1 <0>         0.0000
     20 H9          2.9777    0.1194   -0.0856 H         1 <0>         0.0000
@<TRIPOS>BOND
     1    1    2 1
     2    1    3 2
     3    1   12 1
     4    2    4 2
     5    2   13 1
     6    3   10 1
     7    3   14 1
     8    4   10 1
     9    4   11 1
    10    5    7 1
    11    5   15 1
    12    5   16 1
    13    5   17 1
    14    6    7 1
    15    6   18 1
    16    6   19 1
    17    6   20 1
    18    7   11 1
    19    8   11 2
    20    9   11 2
