@<TRIPOS>MOLECULE
*****
   39    41     0     0     0
SMALL
NO_CHARGES

@<TRIPOS>ATOM
      1 C1          2.9586   -1.5114    5.2746 C.1       1 <0>         0.0000
      2 C2         -0.6589   -4.9811    4.3686 C.ar      1 <0>         0.0000
      3 C3         -0.9486   -3.8941    3.5350 C.ar      1 <0>         0.0000
      4 C4          0.4083   -4.8993    5.2666 C.ar      1 <0>         0.0000
      5 C5         -0.1778   -2.7326    3.6059 C.ar      1 <0>         0.0000
      6 C6          1.1838   -3.7375    5.3349 C.ar      1 <0>         0.0000
      7 C7          0.5934   -1.2828    8.8127 C.2       1 <0>         0.0000
      8 C8         -0.6273   -1.6051    7.1294 C.2       1 <0>         0.0000
      9 C9          0.8936   -2.6496    4.5058 C.ar      1 <0>         0.0000
     10 C10         2.3530    0.4437    0.7005 C.3       1 <0>         0.0000
     11 C11         3.6510    0.7479    1.5072 C.3       1 <0>         0.0000
     12 C12         2.0014   -1.0271    1.0207 C.3       1 <0>         0.0000
     13 C13         3.9670   -0.5393    2.3070 C.3       1 <0>         0.0000
     14 C14         2.6275   -1.2798    2.3930 C.3       1 <0>         0.0000
     15 C15         0.7888   -0.3137    5.4720 C.3       1 <0>         0.0000
     16 C16         1.6334   -1.3160    4.6281 C.3       1 <0>         0.0000
     17 N1          4.0096   -1.6654    5.7442 N.1       1 <0>         0.0000
     18 N2         -0.5545   -1.9133    8.4151 N.2       1 <0>         0.0000
     19 N3          1.2232   -0.6086    7.8590 N.2       1 <0>         0.0000
     20 N4          0.4203   -0.8175    6.7744 N.pl3     1 <0>         0.0000
     21 O1          1.7677   -0.6483    3.3864 O.3       1 <0>         0.0000
     22 H1         -1.2613   -5.8840    4.3171 H         1 <0>         0.0000
     23 H2         -1.7748   -3.9517    2.8312 H         1 <0>         0.0000
     24 H3          0.6370   -5.7361    5.9205 H         1 <0>         0.0000
     25 H4         -0.3994   -1.8878    2.9608 H         1 <0>         0.0000
     26 H5          2.0060   -3.6802    6.0419 H         1 <0>         0.0000
     27 H6          0.9698   -1.3150    9.8269 H         1 <0>         0.0000
     28 H7         -1.3892   -1.9244    6.4301 H         1 <0>         0.0000
     29 H8          1.5424    1.1018    1.0259 H         1 <0>         0.0000
     30 H9          2.4826    0.6013   -0.3739 H         1 <0>         0.0000
     31 H10         4.4850    1.0252    0.8566 H         1 <0>         0.0000
     32 H11         3.4860    1.5864    2.1889 H         1 <0>         0.0000
     33 H12         0.9284   -1.2342    1.0107 H         1 <0>         0.0000
     34 H13         2.4771   -1.7037    0.3015 H         1 <0>         0.0000
     35 H14         4.6705   -1.1759    1.7574 H         1 <0>         0.0000
     36 H15         4.4025   -0.3466    3.2885 H         1 <0>         0.0000
     37 H16         2.7269   -2.3433    2.6276 H         1 <0>         0.0000
     38 H17         1.3514    0.6104    5.6043 H         1 <0>         0.0000
     39 H18        -0.1142   -0.1046    4.8959 H         1 <0>         0.0000
@<TRIPOS>BOND
     1    1   16 1
     2    1   17 3
     3    2    4 ar
     4    2    3 ar
     5    2   22 1
     6    3    5 ar
     7    3   23 1
     8    4    6 ar
     9    4   24 1
    10    5    9 ar
    11    5   25 1
    12    6    9 ar
    13    6   26 1
    14    7   18 1
    15    7   19 2
    16    7   27 1
    17    8   18 2
    18    8   20 1
    19    8   28 1
    20    9   16 1
    21   10   11 1
    22   10   12 1
    23   10   29 1
    24   10   30 1
    25   11   13 1
    26   11   31 1
    27   11   32 1
    28   12   14 1
    29   12   33 1
    30   12   34 1
    31   13   14 1
    32   13   35 1
    33   13   36 1
    34   14   21 1
    35   14   37 1
    36   15   16 1
    37   15   20 1
    38   15   38 1
    39   15   39 1
    40   16   21 1
    41   19   20 1
