@<TRIPOS>MOLECULE
*****
   31    32     0     0     0
SMALL
NO_CHARGES

@<TRIPOS>ATOM
      1 C1          3.1777   -2.8770    3.7288 C.ar      1 <0>         0.0000
      2 C2          4.1950   -1.9395    3.9211 C.ar      1 <0>         0.0000
      3 C3          2.3796   -2.7926    2.5827 C.ar      1 <0>         0.0000
      4 C4          4.4113   -0.9339    2.9741 C.ar      1 <0>         0.0000
      5 C5          2.5735   -1.7945    1.6227 C.ar      1 <0>         0.0000
      6 C6          3.6075   -0.8618    1.8304 C.ar      1 <0>         0.0000
      7 C7         -0.8856    0.6915    1.8390 C.3       1 <0>         0.0000
      8 C8         -1.5270    1.3550    0.6126 C.3       1 <0>         0.0000
      9 C9         -0.2716   -0.6758    1.5269 C.3       1 <0>         0.0000
     10 C10        -0.5312    1.5168   -0.5400 C.3       1 <0>         0.0000
     11 C11         1.7054   -1.7065    0.3926 C.3       1 <0>         0.0000
     12 N1          0.7784   -0.5524    0.4919 N.pl3     1 <0>         0.0000
     13 O1         -1.0106   -0.9571   -1.3873 O.2       1 <0>         0.0000
     14 O2          1.2447    0.0602   -1.9524 O.2       1 <0>         0.0000
     15 O3          3.7909    0.0970    0.8684 O.3       1 <0>         0.0000
     16 S1          0.1280   -0.0966   -1.0162 S.o2      1 <0>         0.0000
     17 H1          3.0080   -3.6636    4.4582 H         1 <0>         0.0000
     18 H2          4.8259   -1.9869    4.8048 H         1 <0>         0.0000
     19 H3          1.5870   -3.5206    2.4225 H         1 <0>         0.0000
     20 H4          5.2086   -0.2067    3.1219 H         1 <0>         0.0000
     21 H5         -0.0971    1.3396    2.2388 H         1 <0>         0.0000
     22 H6         -1.6393    0.5680    2.6242 H         1 <0>         0.0000
     23 H7         -2.3761    0.7592    0.2624 H         1 <0>         0.0000
     24 H8         -1.9126    2.3456    0.8773 H         1 <0>         0.0000
     25 H9          0.2191   -1.0645    2.4216 H         1 <0>         0.0000
     26 H10        -1.0428   -1.3981    1.2212 H         1 <0>         0.0000
     27 H11        -0.9997    1.9131   -1.4448 H         1 <0>         0.0000
     28 H12         0.3349    2.1276   -0.2762 H         1 <0>         0.0000
     29 H13         2.3238   -1.5400   -0.4912 H         1 <0>         0.0000
     30 H14         1.1521   -2.6459    0.2591 H         1 <0>         0.0000
     31 H15         4.5765    0.6222    1.0883 H         1 <0>         0.0000
@<TRIPOS>BOND
     1    1    2 ar
     2    1    3 ar
     3    1   17 1
     4    2    4 ar
     5    2   18 1
     6    3    5 ar
     7    3   19 1
     8    4    6 ar
     9    4   20 1
    10    5    6 ar
    11    5   11 1
    12    6   15 1
    13    7    8 1
    14    7    9 1
    15    7   21 1
    16    7   22 1
    17    8   10 1
    18    8   23 1
    19    8   24 1
    20    9   12 1
    21    9   25 1
    22    9   26 1
    23   10   16 1
    24   10   27 1
    25   10   28 1
    26   11   12 1
    27   11   29 1
    28   11   30 1
    29   12   16 1
    30   13   16 2
    31   14   16 2
    32   15   31 1
