@<TRIPOS>MOLECULE
*****
   52    53     0     0     0
SMALL
NO_CHARGES

@<TRIPOS>ATOM
      1 C1         -0.4824    1.6878   -2.7646 C.ar      1 <0>         0.0000
      2 C2         -1.7727    1.9151   -2.2534 C.ar      1 <0>         0.0000
      3 C3          0.4130    0.9154   -2.0364 C.ar      1 <0>         0.0000
      4 C4         -2.1568    1.3895   -1.0223 C.ar      1 <0>         0.0000
      5 C5          0.0436    0.3670   -0.7942 C.ar      1 <0>         0.0000
      6 C6         -1.2461    0.6210   -0.2862 C.ar      1 <0>         0.0000
      7 C7          0.9705   -0.5163   -0.0584 C.2       1 <0>         0.0000
      8 C8         -0.6294   -0.2241    1.8568 C.3       1 <0>         0.0000
      9 C9          0.3915   -1.1821    1.2015 C.3       1 <0>         0.0000
     10 C10        -0.4871    3.2493    3.6670 C.3       1 <0>         0.0000
     11 C11         1.6466   -4.8210    4.7799 C.3       1 <0>         0.0000
     12 C12         1.2248   -6.3196    0.4897 C.3       1 <0>         0.0000
     13 C13        -0.0368    1.0512    2.4690 C.3       1 <0>         0.0000
     14 C14         1.5479   -1.5390    2.1581 C.3       1 <0>         0.0000
     15 C15        -0.3842   -2.4459    0.7122 C.3       1 <0>         0.0000
     16 C16        -1.1040    2.0273    2.9788 C.3       1 <0>         0.0000
     17 C17         1.1333   -2.4255    3.3407 C.3       1 <0>         0.0000
     18 C18         0.5130   -3.5852    0.2043 C.3       1 <0>         0.0000
     19 O1          2.1006   -0.7738   -0.4596 O.2       1 <0>         0.0000
     20 O2          2.8365   -4.2886    2.4678 O.2       1 <0>         0.0000
     21 O3          3.5101   -2.9176    4.5075 O.2       1 <0>         0.0000
     22 O4         -0.3780   -5.0955    2.2198 O.2       1 <0>         0.0000
     23 O5         -1.2773   -5.5742   -0.1119 O.2       1 <0>         0.0000
     24 O6         -1.6705    0.1194    0.9071 O.3       1 <0>         0.0000
     25 S1          2.4667   -3.6066    3.7297 S.o2      1 <0>         0.0000
     26 S2         -0.1521   -5.1882    0.7561 S.o2      1 <0>         0.0000
     27 H1         -0.1932    2.1084   -3.7232 H         1 <0>         0.0000
     28 H2         -2.4809    2.5146   -2.8195 H         1 <0>         0.0000
     29 H3          1.4122    0.7052   -2.4062 H         1 <0>         0.0000
     30 H4         -3.1464    1.5657   -0.6114 H         1 <0>         0.0000
     31 H5         -1.1752   -0.7664    2.6354 H         1 <0>         0.0000
     32 H6          0.1181    2.9574    4.5330 H         1 <0>         0.0000
     33 H7         -1.2622    3.9379    4.0190 H         1 <0>         0.0000
     34 H8          0.1630    3.8028    2.9799 H         1 <0>         0.0000
     35 H9          2.4163   -5.5429    5.0599 H         1 <0>         0.0000
     36 H10         1.2642   -4.3160    5.6689 H         1 <0>         0.0000
     37 H11         0.8519   -5.2911    4.1989 H         1 <0>         0.0000
     38 H12         0.8615   -7.3074    0.7796 H         1 <0>         0.0000
     39 H13         1.4845   -6.3099   -0.5705 H         1 <0>         0.0000
     40 H14         2.0555   -5.9984    1.1195 H         1 <0>         0.0000
     41 H15         0.6065    0.7606    3.3065 H         1 <0>         0.0000
     42 H16         0.6110    1.5584    1.7440 H         1 <0>         0.0000
     43 H17         2.0239   -0.6289    2.5236 H         1 <0>         0.0000
     44 H18         2.3187   -2.0345    1.5676 H         1 <0>         0.0000
     45 H19        -1.0907   -2.1635   -0.0692 H         1 <0>         0.0000
     46 H20        -0.9979   -2.8018    1.5440 H         1 <0>         0.0000
     47 H21        -1.7316    2.3509    2.1429 H         1 <0>         0.0000
     48 H22        -1.7697    1.5040    3.6775 H         1 <0>         0.0000
     49 H23         0.9480   -1.8602    4.2574 H         1 <0>         0.0000
     50 H24         0.2721   -3.0582    3.1239 H         1 <0>         0.0000
     51 H25         0.5648   -3.6274   -0.8853 H         1 <0>         0.0000
     52 H26         1.5246   -3.5537    0.6067 H         1 <0>         0.0000
@<TRIPOS>BOND
     1    1    2 ar
     2    1    3 ar
     3    1   27 1
     4    2    4 ar
     5    2   28 1
     6    3    5 ar
     7    3   29 1
     8    4    6 ar
     9    4   30 1
    10    5    6 ar
    11    5    7 1
    12    6   24 1
    13    7    9 1
    14    7   19 2
    15    8    9 1
    16    8   13 1
    17    8   24 1
    18    8   31 1
    19    9   14 1
    20    9   15 1
    21   10   16 1
    22   10   32 1
    23   10   33 1
    24   10   34 1
    25   11   25 1
    26   11   35 1
    27   11   36 1
    28   11   37 1
    29   12   26 1
    30   12   38 1
    31   12   39 1
    32   12   40 1
    33   13   16 1
    34   13   41 1
    35   13   42 1
    36   14   17 1
    37   14   43 1
    38   14   44 1
    39   15   18 1
    40   15   45 1
    41   15   46 1
    42   16   47 1
    43   16   48 1
    44   17   25 1
    45   17   49 1
    46   17   50 1
    47   18   26 1
    48   18   51 1
    49   18   52 1
    50   20   25 2
    51   21   25 2
    52   22   26 2
    53   23   26 2
