@<TRIPOS>MOLECULE
*****
   19    18     0     0     0
SMALL
NO_CHARGES

@<TRIPOS>ATOM
      1 C1         -0.1982    1.5682    4.3831 C.3       1 <0>         0.0000
      2 C2          1.0992   -0.7668    0.4388 C.3       1 <0>         0.0000
      3 C3          1.1917   -2.4587    2.2465 C.3       1 <0>         0.0000
      4 C4          0.5832    0.6253    3.4686 C.3       1 <0>         0.0000
      5 N1          0.4163   -1.4239    1.5567 N.pl3     1 <0>         0.0000
      6 O1         -1.3162    0.4232    1.6216 O.2       1 <0>         0.0000
      7 O2         -1.2222   -1.3241    3.4862 O.2       1 <0>         0.0000
      8 S1         -0.5528   -0.4418    2.5259 S.o2      1 <0>         0.0000
      9 H1         -0.8586    2.2151    3.8009 H         1 <0>         0.0000
     10 H2         -0.8018    1.0040    5.0981 H         1 <0>         0.0000
     11 H3          0.5014    2.1982    4.9409 H         1 <0>         0.0000
     12 H4          0.4316   -0.0352   -0.0157 H         1 <0>         0.0000
     13 H5          1.3383   -1.5285   -0.3090 H         1 <0>         0.0000
     14 H6          2.0356   -0.2749    0.7450 H         1 <0>         0.0000
     15 H7          0.5862   -2.8998    3.0380 H         1 <0>         0.0000
     16 H8          2.1316   -2.0719    2.6701 H         1 <0>         0.0000
     17 H9          1.4362   -3.2405    1.5215 H         1 <0>         0.0000
     18 H10         1.2363   -0.0440    4.0354 H         1 <0>         0.0000
     19 H11         1.1771    1.1720    2.7309 H         1 <0>         0.0000
@<TRIPOS>BOND
     1    1    4 1
     2    1    9 1
     3    1   10 1
     4    1   11 1
     5    2    5 1
     6    2   12 1
     7    2   13 1
     8    2   14 1
     9    3    5 1
    10    3   15 1
    11    3   16 1
    12    3   17 1
    13    4    8 1
    14    4   18 1
    15    4   19 1
    16    5    8 1
    17    6    8 2
    18    7    8 2
