@<TRIPOS>MOLECULE
*****
   24    24     0     0     0
SMALL
NO_CHARGES

@<TRIPOS>ATOM
      1 C1          0.0342    1.0708   -0.1916 C.2       1 <0>         0.0000
      2 C2          0.1595   -0.2751   -0.0314 C.2       1 <0>         0.0000
      3 C3          1.0878    2.0182   -0.5270 C.2       1 <0>         0.0000
      4 C4         -2.2502   -0.0459    0.0887 C.3       1 <0>         0.0000
      5 C5         -1.0862   -0.9922    0.4329 C.3       1 <0>         0.0000
      6 C6         -2.4737   -3.1387    0.3936 C.3       1 <0>         0.0000
      7 C7          3.3985    2.2572   -1.0881 C.3       1 <0>         0.0000
      8 C8         -1.2476   -2.4016   -0.1555 C.3       1 <0>         0.0000
      9 O1          0.9702    3.2272   -0.5956 O.2       1 <0>         0.0000
     10 O2          1.2716   -1.0194   -0.1815 O.3       1 <0>         0.0000
     11 O3          2.2956    1.3823   -0.7628 O.3       1 <0>         0.0000
     12 S1         -1.6088    1.6830    0.1620 S.3       1 <0>         0.0000
     13 H1         -2.6042   -0.2411   -0.9292 H         1 <0>         0.0000
     14 H2         -3.0885   -0.1400    0.7798 H         1 <0>         0.0000
     15 H3         -1.0031   -1.0771    1.5285 H         1 <0>         0.0000
     16 H4         -2.4260   -3.2243    1.4854 H         1 <0>         0.0000
     17 H5         -2.5351   -4.1512   -0.0176 H         1 <0>         0.0000
     18 H6         -3.4062   -2.6234    0.1402 H         1 <0>         0.0000
     19 H7          4.2553    1.6013   -1.2429 H         1 <0>         0.0000
     20 H8          3.5855    2.9501   -0.2653 H         1 <0>         0.0000
     21 H9          3.1757    2.8219   -1.9955 H         1 <0>         0.0000
     22 H10        -1.3143   -2.3246   -1.2479 H         1 <0>         0.0000
     23 H11        -0.3410   -2.9752    0.0605 H         1 <0>         0.0000
     24 H12         2.0003   -0.4119   -0.4344 H         1 <0>         0.0000
@<TRIPOS>BOND
     1    1    2 2
     2    1    3 1
     3    1   12 1
     4    2    5 1
     5    2   10 1
     6    3    9 2
     7    3   11 1
     8    4    5 1
     9    4   12 1
    10    4   13 1
    11    4   14 1
    12    5    8 1
    13    5   15 1
    14    6    8 1
    15    6   16 1
    16    6   17 1
    17    6   18 1
    18    7   11 1
    19    7   19 1
    20    7   20 1
    21    7   21 1
    22    8   22 1
    23    8   23 1
    24   10   24 1
