@<TRIPOS>MOLECULE
*****
   26    26     0     0     0
SMALL
NO_CHARGES

@<TRIPOS>ATOM
      1 C1          5.2086   -0.2241    3.2683 C.2       1 <0>         0.0000
      2 C2          5.2445    0.2124    4.6314 C.2       1 <0>         0.0000
      3 C3          3.9484   -0.1529    2.7382 C.2       1 <0>         0.0000
      4 C4          4.0371    0.6031    5.1464 C.2       1 <0>         0.0000
      5 C5          3.7086    1.1188    6.5154 C.3       1 <0>         0.0000
      6 C6          1.1675   -0.2126   -0.7003 C.3       1 <0>         0.0000
      7 C7          0.5417   -2.4898    0.1820 C.3       1 <0>         0.0000
      8 C8          3.5013   -0.4623    1.3393 C.3       1 <0>         0.0000
      9 C9          1.6727   -1.4724    0.0121 C.3       1 <0>         0.0000
     10 N1          2.2032   -1.1380    1.3450 N.3       1 <0>         0.0000
     11 S1          2.8037    0.4333    3.9192 S.3       1 <0>         0.0000
     12 Br1         6.8659    0.2311    5.6443 Br        1 <0>         0.0000
     13 H1          6.0795   -0.5680    2.7208 H         1 <0>         0.0000
     14 H2          3.8674    2.2018    6.5782 H         1 <0>         0.0000
     15 H3          2.6667    0.9165    6.7786 H         1 <0>         0.0000
     16 H4          4.3495    0.6455    7.2640 H         1 <0>         0.0000
     17 H5          0.3923    0.2727   -0.0982 H         1 <0>         0.0000
     18 H6          1.9676    0.5132   -0.8742 H         1 <0>         0.0000
     19 H7          0.7435   -0.4715   -1.6761 H         1 <0>         0.0000
     20 H8         -0.2551   -2.0711    0.8060 H         1 <0>         0.0000
     21 H9          0.9013   -3.4098    0.6582 H         1 <0>         0.0000
     22 H10         0.1154   -2.7615   -0.7886 H         1 <0>         0.0000
     23 H11         3.3977    0.4725    0.7778 H         1 <0>         0.0000
     24 H12         4.2975   -1.0431    0.8398 H         1 <0>         0.0000
     25 H13         2.4585   -1.9324   -0.6162 H         1 <0>         0.0000
     26 H14         2.2933   -1.9939    1.8902 H         1 <0>         0.0000
@<TRIPOS>BOND
     1    1    2 1
     2    1    3 2
     3    1   13 1
     4    2    4 2
     5    2   12 1
     6    3    8 1
     7    3   11 1
     8    4    5 1
     9    4   11 1
    10    5   14 1
    11    5   15 1
    12    5   16 1
    13    6    9 1
    14    6   17 1
    15    6   18 1
    16    6   19 1
    17    7    9 1
    18    7   20 1
    19    7   21 1
    20    7   22 1
    21    8   10 1
    22    8   23 1
    23    8   24 1
    24    9   10 1
    25    9   25 1
    26   10   26 1
