@<TRIPOS>MOLECULE
*****
   24    26     0     0     0
SMALL
NO_CHARGES

@<TRIPOS>ATOM
      1 C1         -0.0063   -2.3105    2.1000 C.ar      1 <0>         0.0000
      2 C2          1.0533   -1.8729    2.8826 C.ar      1 <0>         0.0000
      3 C3          5.3397   -1.6020    6.4961 C.2       1 <0>         0.0000
      4 C4         -0.6371   -1.3692    1.2766 C.ar      1 <0>         0.0000
      5 C5          6.3571   -1.7039    7.4054 C.2       1 <0>         0.0000
      6 C6          6.1175    0.6044    6.5193 C.2       1 <0>         0.0000
      7 C7          1.4521   -0.5266    2.8252 C.ar      1 <0>         0.0000
      8 C8          5.1972   -0.2694    5.9809 C.2       1 <0>         0.0000
      9 C9          0.7361    0.3389    1.9505 C.ar      1 <0>         0.0000
     10 C10         4.1835    0.0987    4.9965 C.2       1 <0>         0.0000
     11 C11         2.5646   -0.0996    3.6582 C.2       1 <0>         0.0000
     12 N1         -0.2810   -0.0851    1.2010 N.ar      1 <0>         0.0000
     13 N2          3.2786   -0.8152    4.4876 N.2       1 <0>         0.0000
     14 N3          4.0542    1.3225    4.5205 N.2       1 <0>         0.0000
     15 O1          2.9668    1.1965    3.6195 O.3       1 <0>         0.0000
     16 O2          1.0168    1.6506    1.8007 O.3       1 <0>         0.0000
     17 S1          7.1556   -0.1811    7.6476 S.3       1 <0>         0.0000
     18 H1         -0.3398   -3.3428    2.1197 H         1 <0>         0.0000
     19 H2          1.5898   -2.5449    3.5451 H         1 <0>         0.0000
     20 H3          4.7067   -2.4271    6.1918 H         1 <0>         0.0000
     21 H4         -1.4735   -1.6638    0.6444 H         1 <0>         0.0000
     22 H5          6.6863   -2.5809    7.9478 H         1 <0>         0.0000
     23 H6          6.2279    1.6593    6.3046 H         1 <0>         0.0000
     24 H7          1.7647    1.9123    2.3688 H         1 <0>         0.0000
@<TRIPOS>BOND
     1    1    2 ar
     2    1    4 ar
     3    1   18 1
     4    2    7 ar
     5    2   19 1
     6    3    5 2
     7    3    8 1
     8    3   20 1
     9    4   12 ar
    10    4   21 1
    11    5   17 1
    12    5   22 1
    13    6    8 2
    14    6   17 1
    15    6   23 1
    16    7    9 ar
    17    7   11 1
    18    8   10 1
    19    9   12 ar
    20    9   16 1
    21   10   13 1
    22   10   14 2
    23   11   13 2
    24   11   15 1
    25   14   15 1
    26   16   24 1
