@<TRIPOS>MOLECULE
*****
   44    46     0     0     0
SMALL
NO_CHARGES

@<TRIPOS>ATOM
      1 C1         -1.5992    0.2672   -0.9541 C.ar      1 <0>         0.0000
      2 C2          1.9523   -3.5774    0.7119 C.ar      1 <0>         0.0000
      3 C3         -0.0133   -3.8725    2.0854 C.ar      1 <0>         0.0000
      4 C4         -2.4131    1.3822   -1.0899 C.ar      1 <0>         0.0000
      5 C5          2.1848   -4.9511    0.7399 C.ar      1 <0>         0.0000
      6 C6          0.2054   -5.2515    2.1253 C.ar      1 <0>         0.0000
      7 C7         -0.9053    2.6141    0.3567 C.ar      1 <0>         0.0000
      8 C8         -0.4551    0.2895   -0.1358 C.ar      1 <0>         0.0000
      9 C9          0.8545   -3.0207    1.3891 C.ar      1 <0>         0.0000
     10 C10        -0.0908    1.4824    0.5140 C.ar      1 <0>         0.0000
     11 C11        -2.0699    2.5681   -0.4223 C.ar      1 <0>         0.0000
     12 C12         1.3116   -5.7744    1.4562 C.ar      1 <0>         0.0000
     13 C13         0.3029   -0.9962   -0.0263 C.2       1 <0>         0.0000
     14 C14         1.2123    1.6366    1.2767 C.3       1 <0>         0.0000
     15 C15         1.4306    0.6820    2.4601 C.3       1 <0>         0.0000
     16 C16         1.7598   -0.7625    2.0741 C.3       1 <0>         0.0000
     17 C17         0.6019   -1.5297    1.3893 C.3       1 <0>         0.0000
     18 C18        -2.6142    4.8531    0.0472 C.3       1 <0>         0.0000
     19 C19         2.7095   -7.7161    2.9526 C.3       1 <0>         0.0000
     20 O1          0.5813   -1.6421   -1.0264 O.2       1 <0>         0.0000
     21 O2          0.3519   -8.2186    1.8474 O.2       1 <0>         0.0000
     22 O3          2.3979   -7.9206    0.3278 O.2       1 <0>         0.0000
     23 O4         -2.9192    3.6213   -0.6021 O.3       1 <0>         0.0000
     24 S1          1.6184   -7.5439    1.5180 S.o2      1 <0>         0.0000
     25 H1         -1.8463   -0.6512   -1.4785 H         1 <0>         0.0000
     26 H2          2.6138   -2.9376    0.1379 H         1 <0>         0.0000
     27 H3         -0.8784   -3.4564    2.5967 H         1 <0>         0.0000
     28 H4         -3.3073    1.3628   -1.7055 H         1 <0>         0.0000
     29 H5          3.0136   -5.3898    0.1921 H         1 <0>         0.0000
     30 H6         -0.4784   -5.9163    2.6444 H         1 <0>         0.0000
     31 H7         -0.6049    3.5376    0.8394 H         1 <0>         0.0000
     32 H8          2.0480    1.5199    0.5732 H         1 <0>         0.0000
     33 H9          1.2717    2.6650    1.6457 H         1 <0>         0.0000
     34 H10         2.2659    1.0681    3.0561 H         1 <0>         0.0000
     35 H11         0.5487    0.6985    3.1130 H         1 <0>         0.0000
     36 H12         2.6454   -0.7825    1.4273 H         1 <0>         0.0000
     37 H13         2.0258   -1.3180    2.9797 H         1 <0>         0.0000
     38 H14        -0.3006   -1.3347    1.9810 H         1 <0>         0.0000
     39 H15        -3.4187    5.5381   -0.2227 H         1 <0>         0.0000
     40 H16        -1.6576    5.2614   -0.3006 H         1 <0>         0.0000
     41 H17        -2.5883    4.7337    1.1372 H         1 <0>         0.0000
     42 H18         2.9329   -8.7816    3.0396 H         1 <0>         0.0000
     43 H19         3.6220   -7.1458    2.7733 H         1 <0>         0.0000
     44 H20         2.1856   -7.3591    3.8403 H         1 <0>         0.0000
@<TRIPOS>BOND
     1    1    4 ar
     2    1    8 ar
     3    1   25 1
     4    2    5 ar
     5    2    9 ar
     6    2   26 1
     7    3    6 ar
     8    3    9 ar
     9    3   27 1
    10    4   11 ar
    11    4   28 1
    12    5   12 ar
    13    5   29 1
    14    6   12 ar
    15    6   30 1
    16    7   10 ar
    17    7   11 ar
    18    7   31 1
    19    8   10 ar
    20    8   13 1
    21    9   17 1
    22   10   14 1
    23   11   23 1
    24   12   24 1
    25   13   17 1
    26   13   20 2
    27   14   15 1
    28   14   32 1
    29   14   33 1
    30   15   16 1
    31   15   34 1
    32   15   35 1
    33   16   17 1
    34   16   36 1
    35   16   37 1
    36   17   38 1
    37   18   23 1
    38   18   39 1
    39   18   40 1
    40   18   41 1
    41   19   24 1
    42   19   42 1
    43   19   43 1
    44   19   44 1
    45   21   24 2
    46   22   24 2
