@<TRIPOS>MOLECULE
*****
   29    30     0     0     0
SMALL
NO_CHARGES

@<TRIPOS>ATOM
      1 C1          0.1461    1.8341    1.4888 C.ar      1 <0>         0.0000
      2 C2         -2.5361    2.5233    1.7126 C.ar      1 <0>         0.0000
      3 C3         -0.8208    0.9151    1.0519 C.ar      1 <0>         0.0000
      4 C4         -0.2000    3.0791    2.0222 C.ar      1 <0>         0.0000
      5 C5         -1.5642    3.4226    2.1448 C.ar      1 <0>         0.0000
      6 C6         -2.1605    1.2954    1.1667 C.ar      1 <0>         0.0000
      7 C7          1.0470   -0.8791    0.3762 C.3       1 <0>         0.0000
      8 C8          0.5175   -2.2768    0.7798 C.3       1 <0>         0.0000
      9 C9         -0.4300   -0.4207    0.4681 C.3       1 <0>         0.0000
     10 C10         2.0877    3.7220    2.3026 C.3       1 <0>         0.0000
     11 C11        -1.7159    4.8685    4.0207 C.3       1 <0>         0.0000
     12 N1         -0.7007   -1.6170    1.3228 N.3       1 <0>         0.0000
     13 O1          0.7014    4.0201    2.4392 O.3       1 <0>         0.0000
     14 O2         -1.9640    4.6473    2.6230 O.3       1 <0>         0.0000
     15 Br1        -3.5677    0.1202    0.5658 Br        1 <0>         0.0000
     16 H1          1.1900    1.5643    1.3936 H         1 <0>         0.0000
     17 H2         -3.5790    2.8077    1.8028 H         1 <0>         0.0000
     18 H3          1.6742   -0.4545    1.1626 H         1 <0>         0.0000
     19 H4          1.5423   -0.7739   -0.5909 H         1 <0>         0.0000
     20 H5          0.3315   -2.9118   -0.0987 H         1 <0>         0.0000
     21 H6          1.0913   -2.8442    1.5196 H         1 <0>         0.0000
     22 H7         -0.8997   -0.5148   -0.5227 H         1 <0>         0.0000
     23 H8          2.6182    4.5990    2.6755 H         1 <0>         0.0000
     24 H9          2.3572    3.5538    1.2528 H         1 <0>         0.0000
     25 H10         2.3697    2.8453    2.8987 H         1 <0>         0.0000
     26 H11        -2.1256    5.8549    4.2461 H         1 <0>         0.0000
     27 H12        -0.6447    4.8541    4.2402 H         1 <0>         0.0000
     28 H13        -2.2307    4.1109    4.6244 H         1 <0>         0.0000
     29 H14        -1.5825   -2.0827    1.1169 H         1 <0>         0.0000
@<TRIPOS>BOND
     1    1    3 ar
     2    1    4 ar
     3    1   16 1
     4    2    5 ar
     5    2    6 ar
     6    2   17 1
     7    3    6 ar
     8    3    9 1
     9    4    5 ar
    10    4   13 1
    11    5   14 1
    12    6   15 1
    13    7    8 1
    14    7    9 1
    15    7   18 1
    16    7   19 1
    17    8   12 1
    18    8   20 1
    19    8   21 1
    20    9   12 1
    21    9   22 1
    22   10   13 1
    23   10   23 1
    24   10   24 1
    25   10   25 1
    26   11   14 1
    27   11   26 1
    28   11   27 1
    29   11   28 1
    30   12   29 1
