@<TRIPOS>MOLECULE
*****
   27    28     0     0     0
SMALL
NO_CHARGES

@<TRIPOS>ATOM
      1 C1          4.6498    0.5630   -0.8035 C.ar      1 <0>         0.0000
      2 C2          4.5573    1.5950   -1.7346 C.ar      1 <0>         0.0000
      3 C3          2.2572    1.7398   -1.6064 C.ar      1 <0>         0.0000
      4 C4          1.7708   -0.8917    0.8762 C.2       1 <0>         0.0000
      5 C5          2.2074    0.7034   -0.6551 C.ar      1 <0>         0.0000
      6 C6          1.1507    0.0446    0.0827 C.2       1 <0>         0.0000
      7 C7          3.4411    0.1158   -0.2581 C.ar      1 <0>         0.0000
      8 C8         -0.3271    0.2978   -0.0136 C.3       1 <0>         0.0000
      9 C9         -2.5336   -0.2813   -1.0894 C.3       1 <0>         0.0000
     10 C10        -1.0231   -0.5032   -1.1296 C.3       1 <0>         0.0000
     11 N1          3.4018    2.1770   -2.1347 N.ar      1 <0>         0.0000
     12 N2          3.1492   -0.8572    0.6706 N.pl3     1 <0>         0.0000
     13 N3         -0.5379   -0.0655   -2.4475 N.3       1 <0>         0.0000
     14 O1         -3.0372   -0.8347    0.1326 O.3       1 <0>         0.0000
     15 H1          5.6133    0.1426   -0.5277 H         1 <0>         0.0000
     16 H2          5.4635    1.9862   -2.1935 H         1 <0>         0.0000
     17 H3          1.3433    2.2198   -1.9525 H         1 <0>         0.0000
     18 H4          1.3387   -1.5867    1.5847 H         1 <0>         0.0000
     19 H5         -0.8117    0.0400    0.9319 H         1 <0>         0.0000
     20 H6         -0.5100    1.3635   -0.1956 H         1 <0>         0.0000
     21 H7         -2.9982   -0.7761   -1.9563 H         1 <0>         0.0000
     22 H8         -2.7431    0.7952   -1.1600 H         1 <0>         0.0000
     23 H9         -0.8413   -1.5739   -0.9373 H         1 <0>         0.0000
     24 H10         3.8259   -1.4269    1.1577 H         1 <0>         0.0000
     25 H11        -0.9219   -0.6673   -3.1752 H         1 <0>         0.0000
     26 H12         0.4735   -0.1777   -2.4918 H         1 <0>         0.0000
     27 H13        -3.9826   -0.6317    0.1902 H         1 <0>         0.0000
@<TRIPOS>BOND
     1    1    2 ar
     2    1    7 ar
     3    1   15 1
     4    2   11 ar
     5    2   16 1
     6    3    5 ar
     7    3   11 ar
     8    3   17 1
     9    4    6 2
    10    4   12 1
    11    4   18 1
    12    5    6 1
    13    5    7 ar
    14    6    8 1
    15    7   12 1
    16    8   10 1
    17    8   19 1
    18    8   20 1
    19    9   10 1
    20    9   14 1
    21    9   21 1
    22    9   22 1
    23   10   13 1
    24   10   23 1
    25   12   24 1
    26   13   25 1
    27   13   26 1
    28   14   27 1
