@<TRIPOS>MOLECULE
*****
   28    28     0     0     0
SMALL
NO_CHARGES

@<TRIPOS>ATOM
      1 C1          5.1789   -0.7214    1.2857 C.ar      1 <0>         0.0000
      2 C2          5.6547   -0.4162    3.6391 C.ar      1 <0>         0.0000
      3 C3          4.0310    0.0700    1.3995 C.ar      1 <0>         0.0000
      4 C4          5.9941   -0.9559    2.3940 C.ar      1 <0>         0.0000
      5 C5          3.6732    0.6141    2.6495 C.ar      1 <0>         0.0000
      6 C6          4.4951    0.3514    3.7541 C.ar      1 <0>         0.0000
      7 C7          3.2448    0.2863    0.1228 C.2       1 <0>         0.0000
      8 C8          1.9046    1.6597   -1.5121 C.3       1 <0>         0.0000
      9 C9          3.7507    2.7319   -0.1225 C.3       1 <0>         0.0000
     10 C10         1.3623    0.6543    3.1264 C.3       1 <0>         0.0000
     11 C11         2.6440    1.6573   -0.1723 C.3       1 <0>         0.0000
     12 O1          3.1828   -0.6300   -0.6864 O.2       1 <0>         0.0000
     13 O2          7.1171   -1.7213    2.2055 O.3       1 <0>         0.0000
     14 O3          2.5507    1.3956    2.8024 O.3       1 <0>         0.0000
     15 Cl1         4.0670    1.0021    5.3234 Cl        1 <0>         0.0000
     16 H1          5.4387   -1.1525    0.3248 H         1 <0>         0.0000
     17 H2          6.2751   -0.5868    4.5154 H         1 <0>         0.0000
     18 H3          2.5896    1.4600   -2.3413 H         1 <0>         0.0000
     19 H4          1.4377    2.6364   -1.6774 H         1 <0>         0.0000
     20 H5          1.1257    0.8930   -1.5399 H         1 <0>         0.0000
     21 H6          4.5240    2.5309   -0.8724 H         1 <0>         0.0000
     22 H7          4.2276    2.7813    0.8596 H         1 <0>         0.0000
     23 H8          3.3201    3.7147   -0.3376 H         1 <0>         0.0000
     24 H9          0.5630    1.3898    3.2333 H         1 <0>         0.0000
     25 H10         1.4886    0.1084    4.0674 H         1 <0>         0.0000
     26 H11         1.1137   -0.0505    2.3234 H         1 <0>         0.0000
     27 H12         1.9429    1.8853    0.6356 H         1 <0>         0.0000
     28 H13         7.5890   -1.8184    3.0477 H         1 <0>         0.0000
@<TRIPOS>BOND
     1    1    3 ar
     2    1    4 ar
     3    1   16 1
     4    2    4 ar
     5    2    6 ar
     6    2   17 1
     7    3    5 ar
     8    3    7 1
     9    4   13 1
    10    5    6 ar
    11    5   14 1
    12    6   15 1
    13    7   11 1
    14    7   12 2
    15    8   11 1
    16    8   18 1
    17    8   19 1
    18    8   20 1
    19    9   11 1
    20    9   21 1
    21    9   22 1
    22    9   23 1
    23   10   14 1
    24   10   24 1
    25   10   25 1
    26   10   26 1
    27   11   27 1
    28   13   28 1
