@<TRIPOS>MOLECULE
*****
   42    44     0     0     0
SMALL
NO_CHARGES

@<TRIPOS>ATOM
      1 C1          2.6451   -2.2775    1.5472 C.1       1 <0>         0.0000
      2 C2          2.1530   -1.4278    0.8329 C.1       1 <0>         0.0000
      3 C3          4.0618   -5.4400    3.9918 C.ar      1 <0>         0.0000
      4 C4         -1.7789   -4.3159   -0.2583 C.ar      1 <0>         0.0000
      5 C5          3.2035   -5.7055    2.9183 C.ar      1 <0>         0.0000
      6 C6          4.4611   -4.1242    4.2533 C.ar      1 <0>         0.0000
      7 C7         -2.1918   -3.1102   -0.8358 C.ar      1 <0>         0.0000
      8 C8         -1.0211   -4.2896    0.9162 C.ar      1 <0>         0.0000
      9 C9          2.7433   -4.6648    2.1115 C.ar      1 <0>         0.0000
     10 C10         4.0065   -3.0774    3.4505 C.ar      1 <0>         0.0000
     11 C11        -1.8456   -1.8903   -0.2466 C.ar      1 <0>         0.0000
     12 C12        -0.6694   -3.0686    1.4978 C.ar      1 <0>         0.0000
     13 C13         3.1406   -3.3371    2.3707 C.ar      1 <0>         0.0000
     14 C14        -1.0667   -1.8520    0.9243 C.ar      1 <0>         0.0000
     15 C15        -1.6845    1.3815    0.4926 C.2       1 <0>         0.0000
     16 C16        -1.8434    0.4488    1.6879 C.3       1 <0>         0.0000
     17 C17        -0.6661   -0.5432    1.5833 C.3       1 <0>         0.0000
     18 C18         0.3932    0.3063    0.8108 C.3       1 <0>         0.0000
     19 C19         0.1507    2.0824   -1.0083 C.3       1 <0>         0.0000
     20 C20         1.4726   -0.4390   -0.0186 C.3       1 <0>         0.0000
     21 N1         -0.4173    1.2031   -0.0034 N.am      1 <0>         0.0000
     22 O1         -2.5219    2.1660    0.0589 O.2       1 <0>         0.0000
     23 O2          1.0020   -0.9930   -1.2416 O.3       1 <0>         0.0000
     24 H1          4.4187   -6.2528    4.6187 H         1 <0>         0.0000
     25 H2         -2.0505   -5.2634   -0.7159 H         1 <0>         0.0000
     26 H3          2.8945   -6.7264    2.7093 H         1 <0>         0.0000
     27 H4          5.1289   -3.9147    5.0847 H         1 <0>         0.0000
     28 H5         -2.7860   -3.1168   -1.7458 H         1 <0>         0.0000
     29 H6         -0.7028   -5.2186    1.3824 H         1 <0>         0.0000
     30 H7          2.0801   -4.8629    1.2748 H         1 <0>         0.0000
     31 H8          4.3153   -2.0554    3.6500 H         1 <0>         0.0000
     32 H9         -2.1770   -0.9667   -0.7119 H         1 <0>         0.0000
     33 H10        -0.0703   -3.0604    2.4039 H         1 <0>         0.0000
     34 H11        -1.7686    1.0618    2.5935 H         1 <0>         0.0000
     35 H12        -2.8264   -0.0240    1.6867 H         1 <0>         0.0000
     36 H13        -0.2583   -0.7798    2.5675 H         1 <0>         0.0000
     37 H14         0.9610    0.8873    1.5570 H         1 <0>         0.0000
     38 H15         0.9377    2.7154   -0.5764 H         1 <0>         0.0000
     39 H16        -0.6517    2.7220   -1.3793 H         1 <0>         0.0000
     40 H17         0.5674    1.5005   -1.8346 H         1 <0>         0.0000
     41 H18         2.2083    0.3102   -0.3302 H         1 <0>         0.0000
     42 H19         0.3444   -1.6791   -1.0345 H         1 <0>         0.0000
@<TRIPOS>BOND
     1    1    2 3
     2    1   13 1
     3    2   20 1
     4    3    6 ar
     5    3    5 ar
     6    3   24 1
     7    4    8 ar
     8    4    7 ar
     9    4   25 1
    10    5    9 ar
    11    5   26 1
    12    6   10 ar
    13    6   27 1
    14    7   11 ar
    15    7   28 1
    16    8   12 ar
    17    8   29 1
    18    9   13 ar
    19    9   30 1
    20   10   13 ar
    21   10   31 1
    22   11   14 ar
    23   11   32 1
    24   12   14 ar
    25   12   33 1
    26   14   17 1
    27   15   16 1
    28   15   21 am
    29   15   22 2
    30   16   17 1
    31   16   34 1
    32   16   35 1
    33   17   18 1
    34   17   36 1
    35   18   20 1
    36   18   21 1
    37   18   37 1
    38   19   21 1
    39   19   38 1
    40   19   39 1
    41   19   40 1
    42   20   23 1
    43   20   41 1
    44   23   42 1
