@<TRIPOS>MOLECULE
*****
   21    21     0     0     0
SMALL
NO_CHARGES

@<TRIPOS>ATOM
      1 C1          1.8043   -0.6397   -0.1201 C.ar      1 <0>         0.0000
      2 C2          2.7330   -1.4980    0.4759 C.ar      1 <0>         0.0000
      3 C3          0.7509   -0.0954    0.6203 C.ar      1 <0>         0.0000
      4 C4          1.5352   -1.2996    2.6066 C.ar      1 <0>         0.0000
      5 C5          2.5754   -1.8052    1.8205 C.ar      1 <0>         0.0000
      6 C6          0.6415   -0.4359    1.9621 C.ar      1 <0>         0.0000
      7 C7          1.3746   -1.6570    4.0465 C.3       1 <0>         0.0000
      8 C8          1.0705   -4.5627    3.8217 C.3       1 <0>         0.0000
      9 O1         -0.9783   -2.8606    3.4034 O.2       1 <0>         0.0000
     10 O2         -0.0559   -3.1064    5.7874 O.2       1 <0>         0.0000
     11 F1          3.4711   -2.6308    2.4145 F         1 <0>         0.0000
     12 F2         -0.3556    0.1030    2.6965 F         1 <0>         0.0000
     13 F3          2.2477   -4.6262    4.4626 F         1 <0>         0.0000
     14 F4          0.3281   -5.6212    4.1483 F         1 <0>         0.0000
     15 F5          1.2869   -4.5599    2.5001 F         1 <0>         0.0000
     16 S1          0.1352   -2.9913    4.3410 S.o2      1 <0>         0.0000
     17 H1          1.9051   -0.3892   -1.1718 H         1 <0>         0.0000
     18 H2          3.5613   -1.9254   -0.0791 H         1 <0>         0.0000
     19 H3          0.0247    0.5781    0.1778 H         1 <0>         0.0000
     20 H4          0.9510   -0.8376    4.6333 H         1 <0>         0.0000
     21 H5          2.2996   -1.9934    4.5161 H         1 <0>         0.0000
@<TRIPOS>BOND
     1    1    3 ar
     2    1    2 ar
     3    1   17 1
     4    2    5 ar
     5    2   18 1
     6    3    6 ar
     7    3   19 1
     8    4    6 ar
     9    4    5 ar
    10    4    7 1
    11    5   11 1
    12    6   12 1
    13    7   16 1
    14    7   20 1
    15    7   21 1
    16    8   13 1
    17    8   14 1
    18    8   15 1
    19    8   16 1
    20    9   16 2
    21   10   16 2
