@<TRIPOS>MOLECULE
*****
   14    14     0     0     0
SMALL
NO_CHARGES

@<TRIPOS>ATOM
      1 C1         -1.0703   -0.0530   -0.7813 C.3       1 <0>         0.0000
      2 C2          0.2595    0.5248   -1.2525 C.3       1 <0>         0.0000
      3 C3          0.1120   -0.0303    0.1413 C.3       1 <0>         0.0000
      4 C4          0.7801   -1.3311    0.5306 C.3       1 <0>         0.0000
      5 O1          0.0340    0.8932    1.2152 O.3       1 <0>         0.0000
      6 O2          2.0935   -1.1262    1.0628 O.3       1 <0>         0.0000
      7 H1         -1.8672    0.6490   -0.5579 H         1 <0>         0.0000
      8 H2         -1.3939   -1.0086   -1.1855 H         1 <0>         0.0000
      9 H3          0.8459   -0.0396   -1.9720 H         1 <0>         0.0000
     10 H4          0.3174    1.6042   -1.3589 H         1 <0>         0.0000
     11 H5          0.8999   -1.9735   -0.3459 H         1 <0>         0.0000
     12 H6          0.1493   -1.8586    1.2595 H         1 <0>         0.0000
     13 H7          0.8665    1.3920    1.2204 H         1 <0>         0.0000
     14 H8          1.9830   -0.7638    1.9555 H         1 <0>         0.0000
@<TRIPOS>BOND
     1    1    2 1
     2    1    3 1
     3    1    7 1
     4    1    8 1
     5    2    3 1
     6    2    9 1
     7    2   10 1
     8    3    4 1
     9    3    5 1
    10    4    6 1
    11    4   11 1
    12    4   12 1
    13    5   13 1
    14    6   14 1
