@<TRIPOS>MOLECULE
*****
   33    33     0     0     0
SMALL
NO_CHARGES

@<TRIPOS>ATOM
      1 C1          0.1246   -0.8061    1.2557 C.3       1 <0>         0.0000
      2 C2         -0.6649   -2.0332    0.7423 C.3       1 <0>         0.0000
      3 C3          1.0666   -1.3783    2.3120 C.3       1 <0>         0.0000
      4 C4          0.1839   -3.2895    1.0887 C.3       1 <0>         0.0000
      5 C5         -0.5717   -4.2352    2.0349 C.3       1 <0>         0.0000
      6 C6          2.6915   -6.9514    5.4770 C.3       1 <0>         0.0000
      7 C7          0.0822   -5.5784    2.4066 C.3       1 <0>         0.0000
      8 C8          1.7139   -7.0427    4.3023 C.3       1 <0>         0.0000
      9 C9          3.2062   -8.3350    5.8404 C.3       1 <0>         0.0000
     10 N1          1.4565   -2.7041    1.7069 N.4       1 <0>         0.0000
     11 O1          0.3566   -4.8012    4.9533 O.2       1 <0>         0.0000
     12 O2          2.3540   -4.6168    3.3940 O.2       1 <0>         0.0000
     13 F1          2.1910   -9.1639    6.1840 F         1 <0>         0.0000
     14 F2          3.8546   -8.9061    4.7945 F         1 <0>         0.0000
     15 F3          4.0616   -8.2705    6.8745 F         1 <0>         0.0000
     16 S1          1.1558   -5.3790    3.8668 S.o2      1 <0>         0.0000
     17 H1          0.7034   -0.3451    0.4494 H         1 <0>         0.0000
     18 H2         -0.5261   -0.0360    1.6728 H         1 <0>         0.0000
     19 H3         -1.6338   -2.1020    1.2418 H         1 <0>         0.0000
     20 H4         -0.8575   -1.9714   -0.3299 H         1 <0>         0.0000
     21 H5          1.9639   -0.7905    2.5088 H         1 <0>         0.0000
     22 H6          0.5657   -1.5931    3.2582 H         1 <0>         0.0000
     23 H7          0.4996   -3.8356    0.1972 H         1 <0>         0.0000
     24 H8         -1.5032   -4.4725    1.5121 H         1 <0>         0.0000
     25 H9         -0.8754   -3.7099    2.9469 H         1 <0>         0.0000
     26 H10         2.2047   -6.5322    6.3600 H         1 <0>         0.0000
     27 H11         3.5540   -6.3323    5.2218 H         1 <0>         0.0000
     28 H12        -0.6879   -6.2983    2.6957 H         1 <0>         0.0000
     29 H13         0.6902   -6.0049    1.6042 H         1 <0>         0.0000
     30 H14         2.1854   -7.4628    3.4104 H         1 <0>         0.0000
     31 H15         0.8185   -7.6129    4.5617 H         1 <0>         0.0000
     32 H16         2.1393   -2.5388    0.9614 H         1 <0>         0.0000
     33 H17         1.9107   -3.3592    2.3953 H         1 <0>         0.0000
@<TRIPOS>BOND
     1    1    2 1
     2    1    3 1
     3    1   17 1
     4    1   18 1
     5    2    4 1
     6    2   19 1
     7    2   20 1
     8    3   10 1
     9    3   21 1
    10    3   22 1
    11    4    5 1
    12    4   10 1
    13    4   23 1
    14    5    7 1
    15    5   24 1
    16    5   25 1
    17    6    8 1
    18    6    9 1
    19    6   26 1
    20    6   27 1
    21    7   16 1
    22    7   28 1
    23    7   29 1
    24    8   16 1
    25    8   30 1
    26    8   31 1
    27    9   13 1
    28    9   14 1
    29    9   15 1
    30   10   32 1
    31   10   33 1
    32   11   16 2
    33   12   16 2
