@<TRIPOS>MOLECULE
*****
   35    35     0     0     0
SMALL
NO_CHARGES

@<TRIPOS>ATOM
      1 C1          3.3331    1.1453   -3.8173 C.ar      1 <0>         0.0000
      2 C2          4.5287    1.6808   -4.3065 C.ar      1 <0>         0.0000
      3 C3          3.6525    2.3604   -1.7637 C.ar      1 <0>         0.0000
      4 C4          2.8873    1.4644   -2.5318 C.ar      1 <0>         0.0000
      5 C5          5.3101    2.5490   -3.5304 C.ar      1 <0>         0.0000
      6 C6          4.8503    2.9109   -2.2354 C.ar      1 <0>         0.0000
      7 C7          8.4091    3.3344   -5.3312 C.3       1 <0>         0.0000
      8 C8         -0.9728    1.3930   -1.9272 C.3       1 <0>         0.0000
      9 C9          6.2552    4.8560   -1.8247 C.3       1 <0>         0.0000
     10 C10         1.5679    0.9430   -2.0068 C.3       1 <0>         0.0000
     11 C11         7.0591    2.6568   -5.1902 C.3       1 <0>         0.0000
     12 C12         0.3769    1.7701   -2.5209 C.3       1 <0>         0.0000
     13 N1          0.6739    3.2424   -2.2124 N.4       1 <0>         0.0000
     14 O1          5.5265    3.6993   -1.3599 O.3       1 <0>         0.0000
     15 O2          6.5098    3.0498   -3.9147 O.3       1 <0>         0.0000
     16 H1          2.7703    0.4528   -4.4390 H         1 <0>         0.0000
     17 H2          4.8672    1.3888   -5.2933 H         1 <0>         0.0000
     18 H3          3.3783    2.6035   -0.7382 H         1 <0>         0.0000
     19 H4          8.3041    4.4225   -5.3016 H         1 <0>         0.0000
     20 H5          9.0843    3.0242   -4.5293 H         1 <0>         0.0000
     21 H6          8.8603    3.0579   -6.2888 H         1 <0>         0.0000
     22 H7         -0.9637    1.4677   -0.8343 H         1 <0>         0.0000
     23 H8         -1.7862    2.0118   -2.3193 H         1 <0>         0.0000
     24 H9         -1.1956    0.3546   -2.1843 H         1 <0>         0.0000
     25 H10         6.3498    5.5010   -0.9500 H         1 <0>         0.0000
     26 H11         5.6988    5.3764   -2.6105 H         1 <0>         0.0000
     27 H12         7.2400    4.5751   -2.1964 H         1 <0>         0.0000
     28 H13         1.5576    0.9342   -0.9102 H         1 <0>         0.0000
     29 H14         1.3955   -0.0880   -2.3297 H         1 <0>         0.0000
     30 H15         7.1587    1.5650   -5.2157 H         1 <0>         0.0000
     31 H16         6.3746    2.9672   -5.9892 H         1 <0>         0.0000
     32 H17         0.3523    1.7282   -3.6128 H         1 <0>         0.0000
     33 H18         1.6652    3.4384   -2.4502 H         1 <0>         0.0000
     34 H19         0.5591    3.4383   -1.2109 H         1 <0>         0.0000
     35 H20         0.0620    3.8827   -2.7300 H         1 <0>         0.0000
@<TRIPOS>BOND
     1    1    2 ar
     2    1    4 ar
     3    1   16 1
     4    2    5 ar
     5    2   17 1
     6    3    4 ar
     7    3    6 ar
     8    3   18 1
     9    4   10 1
    10    5    6 ar
    11    5   15 1
    12    6   14 1
    13    7   11 1
    14    7   19 1
    15    7   20 1
    16    7   21 1
    17    8   12 1
    18    8   22 1
    19    8   23 1
    20    8   24 1
    21    9   14 1
    22    9   25 1
    23    9   26 1
    24    9   27 1
    25   10   12 1
    26   10   28 1
    27   10   29 1
    28   11   15 1
    29   11   30 1
    30   11   31 1
    31   12   13 1
    32   12   32 1
    33   13   33 1
    34   13   34 1
    35   13   35 1
