@<TRIPOS>MOLECULE
*****
   35    36     0     0     0
SMALL
NO_CHARGES

@<TRIPOS>ATOM
      1 C1          3.3272   -1.9506    7.9169 C.1       1 <0>         0.0000
      2 C2          5.2392    0.0667    5.7010 C.ar      1 <0>         0.0000
      3 C3          5.0892    0.8034    4.5158 C.ar      1 <0>         0.0000
      4 C4          3.5511   -1.4896    4.9366 C.ar      1 <0>         0.0000
      5 C5          4.4742   -1.0727    5.9114 C.ar      1 <0>         0.0000
      6 C6          4.1749    0.3994    3.5442 C.ar      1 <0>         0.0000
      7 C7          3.3927   -0.7711    3.7555 C.ar      1 <0>         0.0000
      8 C8         -0.4354   -0.8644    2.9909 C.3       1 <0>         0.0000
      9 C9         -0.1314   -1.2455    1.5115 C.3       1 <0>         0.0000
     10 C10         0.4608   -1.7784    3.8602 C.3       1 <0>         0.0000
     11 C11         0.9215   -2.3761    1.5789 C.3       1 <0>         0.0000
     12 C12         1.6114   -2.1831    2.9287 C.3       1 <0>         0.0000
     13 C13         4.7068    2.2252    2.1054 C.3       1 <0>         0.0000
     14 C14         4.6199   -1.8750    7.1837 C.3       1 <0>         0.0000
     15 N1          2.3279   -2.0331    8.5068 N.1       1 <0>         0.0000
     16 O1          5.0809   -3.1907    6.8612 O.3       1 <0>         0.0000
     17 O2          2.5431   -1.0944    2.7452 O.3       1 <0>         0.0000
     18 O3          3.9514    1.0474    2.3660 O.3       1 <0>         0.0000
     19 H1          5.9553    0.3967    6.4491 H         1 <0>         0.0000
     20 H2          5.6923    1.6911    4.3655 H         1 <0>         0.0000
     21 H3          2.9641   -2.3812    5.1196 H         1 <0>         0.0000
     22 H4         -0.1866    0.1850    3.1698 H         1 <0>         0.0000
     23 H5         -1.4920   -0.9905    3.2434 H         1 <0>         0.0000
     24 H6         -1.0284   -1.5657    0.9736 H         1 <0>         0.0000
     25 H7          0.2774   -0.3853    0.9755 H         1 <0>         0.0000
     26 H8          0.8035   -1.2943    4.7774 H         1 <0>         0.0000
     27 H9         -0.0754   -2.6883    4.1543 H         1 <0>         0.0000
     28 H10         0.4385   -3.3597    1.5798 H         1 <0>         0.0000
     29 H11         1.6390   -2.3541    0.7548 H         1 <0>         0.0000
     30 H12         2.1567   -3.0758    3.2546 H         1 <0>         0.0000
     31 H13         4.3765    2.5787    1.1278 H         1 <0>         0.0000
     32 H14         5.7823    2.0113    2.0704 H         1 <0>         0.0000
     33 H15         4.5122    3.0000    2.8574 H         1 <0>         0.0000
     34 H16         5.3299   -1.3648    7.8479 H         1 <0>         0.0000
     35 H17         5.1203   -3.7141    7.6797 H         1 <0>         0.0000
@<TRIPOS>BOND
     1    1   14 1
     2    1   15 3
     3    2    3 ar
     4    2    5 ar
     5    2   19 1
     6    3    6 ar
     7    3   20 1
     8    4    5 ar
     9    4    7 ar
    10    4   21 1
    11    5   14 1
    12    6    7 ar
    13    6   18 1
    14    7   17 1
    15    8    9 1
    16    8   10 1
    17    8   22 1
    18    8   23 1
    19    9   11 1
    20    9   24 1
    21    9   25 1
    22   10   12 1
    23   10   26 1
    24   10   27 1
    25   11   12 1
    26   11   28 1
    27   11   29 1
    28   12   17 1
    29   12   30 1
    30   13   18 1
    31   13   31 1
    32   13   32 1
    33   13   33 1
    34   14   16 1
    35   14   34 1
    36   16   35 1
