@<TRIPOS>MOLECULE
*****
   25    26     0     0     0
SMALL
NO_CHARGES

@<TRIPOS>ATOM
      1 C1          1.8245   -1.4983   -0.0785 C.ar      1 <0>         0.0000
      2 C2          0.6445   -1.0524    0.5269 C.ar      1 <0>         0.0000
      3 C3          2.9877   -1.6559    0.6861 C.ar      1 <0>         0.0000
      4 C4         -0.8144    0.7388    6.4995 C.ar      1 <0>         0.0000
      5 C5         -1.7843   -0.2691    6.4613 C.ar      1 <0>         0.0000
      6 C6          0.6225   -0.7789    1.8956 C.ar      1 <0>         0.0000
      7 C7          2.9707   -1.3633    2.0493 C.ar      1 <0>         0.0000
      8 C8          0.3418    0.6013    5.7320 C.ar      1 <0>         0.0000
      9 C9         -1.5915   -1.4014    5.6681 C.ar      1 <0>         0.0000
     10 C10         1.7854   -0.9320    2.6656 C.ar      1 <0>         0.0000
     11 C11         0.5409   -0.5106    4.9008 C.ar      1 <0>         0.0000
     12 C12        -0.4328   -1.5266    4.8903 C.ar      1 <0>         0.0000
     13 C13         1.8211   -0.5815    4.1172 C.2       1 <0>         0.0000
     14 O1          2.8807   -0.2901    4.6671 O.2       1 <0>         0.0000
     15 O2         -0.1922   -2.6439    4.1322 O.3       1 <0>         0.0000
     16 H1          1.8393   -1.7195   -1.1429 H         1 <0>         0.0000
     17 H2         -0.2557   -0.9197   -0.0676 H         1 <0>         0.0000
     18 H3          3.9047   -2.0014    0.2157 H         1 <0>         0.0000
     19 H4         -0.9573    1.6163    7.1230 H         1 <0>         0.0000
     20 H5         -2.6894   -0.1820    7.0565 H         1 <0>         0.0000
     21 H6         -0.2938   -0.4317    2.3634 H         1 <0>         0.0000
     22 H7          3.8658   -1.4626    2.6558 H         1 <0>         0.0000
     23 H8          1.1170    1.3615    5.7583 H         1 <0>         0.0000
     24 H9         -2.3354   -2.1968    5.6597 H         1 <0>         0.0000
     25 H10        -0.9329   -3.2626    4.2328 H         1 <0>         0.0000
@<TRIPOS>BOND
     1    1    3 ar
     2    1    2 ar
     3    1   16 1
     4    2    6 ar
     5    2   17 1
     6    3    7 ar
     7    3   18 1
     8    4    5 ar
     9    4    8 ar
    10    4   19 1
    11    5    9 ar
    12    5   20 1
    13    6   10 ar
    14    6   21 1
    15    7   10 ar
    16    7   22 1
    17    8   11 ar
    18    8   23 1
    19    9   12 ar
    20    9   24 1
    21   10   13 1
    22   11   12 ar
    23   11   13 1
    24   12   15 1
    25   13   14 2
    26   15   25 1
