@<TRIPOS>MOLECULE
*****
   25    26     0     0     0
SMALL
NO_CHARGES

@<TRIPOS>ATOM
      1 C1         -1.5068   -1.4625   -1.9745 C.ar      1 <0>         0.0000
      2 C2         -3.1813   -1.2575   -0.2154 C.ar      1 <0>         0.0000
      3 C3         -1.8250   -0.1864   -2.4615 C.ar      1 <0>         0.0000
      4 C4         -3.5008   -0.0032   -0.7242 C.ar      1 <0>         0.0000
      5 C5         -2.8553    0.5299   -1.8370 C.ar      1 <0>         0.0000
      6 C6         -2.1787   -1.9745   -0.8685 C.ar      1 <0>         0.0000
      7 C7          1.0742    0.8910   -0.7239 C.3       1 <0>         0.0000
      8 C8          1.7466    0.1520   -1.8791 C.3       1 <0>         0.0000
      9 C9          0.4822    1.8879   -2.7236 C.3       1 <0>         0.0000
     10 C10        -0.6794    1.5895   -3.6685 C.3       1 <0>         0.0000
     11 O1          0.0697    1.6744   -1.3806 O.3       1 <0>         0.0000
     12 O2          1.6221    1.0763   -2.9667 O.3       1 <0>         0.0000
     13 O3         -1.1521    0.2345   -3.5724 O.3       1 <0>         0.0000
     14 F1         -4.4729    0.7257   -0.1394 F         1 <0>         0.0000
     15 F2         -3.2381    1.7439   -2.2882 F         1 <0>         0.0000
     16 Br1        -1.6951   -3.7078   -0.2105 Br        1 <0>         0.0000
     17 H1         -0.7336   -2.0286   -2.4804 H         1 <0>         0.0000
     18 H2         -3.7084   -1.6419    0.6500 H         1 <0>         0.0000
     19 H3          0.5757    0.2284   -0.0126 H         1 <0>         0.0000
     20 H4          1.7762    1.5470   -0.1940 H         1 <0>         0.0000
     21 H5          2.8092   -0.0403   -1.7149 H         1 <0>         0.0000
     22 H6          1.2342   -0.7869   -2.1136 H         1 <0>         0.0000
     23 H7          0.7865    2.9357   -2.8721 H         1 <0>         0.0000
     24 H8         -0.3269    1.6858   -4.6971 H         1 <0>         0.0000
     25 H9         -1.4823    2.3080   -3.4944 H         1 <0>         0.0000
@<TRIPOS>BOND
     1    1    3 ar
     2    1    6 ar
     3    1   17 1
     4    2    4 ar
     5    2    6 ar
     6    2   18 1
     7    3    5 ar
     8    3   13 1
     9    4    5 ar
    10    4   14 1
    11    5   15 1
    12    6   16 1
    13    7    8 1
    14    7   11 1
    15    7   19 1
    16    7   20 1
    17    8   12 1
    18    8   21 1
    19    8   22 1
    20    9   10 1
    21    9   12 1
    22    9   11 1
    23    9   23 1
    24   10   13 1
    25   10   24 1
    26   10   25 1
