@<TRIPOS>MOLECULE
*****
   17    17     0     0     0
SMALL
NO_CHARGES

@<TRIPOS>ATOM
      1 C1          1.9072   -1.0471   -0.1670 C.ar      1 <0>         0.0000
      2 C2          0.8067   -0.4579    0.4556 C.ar      1 <0>         0.0000
      3 C3          2.9225   -1.6326    0.6010 C.ar      1 <0>         0.0000
      4 C4          0.7100   -0.4480    1.8559 C.ar      1 <0>         0.0000
      5 C5          2.8333   -1.6265    1.9902 C.ar      1 <0>         0.0000
      6 C6          1.7204   -1.0306    2.6199 C.ar      1 <0>         0.0000
      7 C7          0.6730   -0.5194    4.7193 C.3       1 <0>         0.0000
      8 O1          3.8246   -2.1982    2.7425 O.3       1 <0>         0.0000
      9 O2          1.7586   -1.0946    3.9978 O.3       1 <0>         0.0000
     10 H1          1.9829   -1.0552   -1.2507 H         1 <0>         0.0000
     11 H2          0.0180   -0.0032   -0.1369 H         1 <0>         0.0000
     12 H3          3.7884   -2.0971    0.1379 H         1 <0>         0.0000
     13 H4         -0.1489    0.0122    2.3326 H         1 <0>         0.0000
     14 H5          0.8954   -0.6765    5.7755 H         1 <0>         0.0000
     15 H6         -0.2732   -1.0132    4.4675 H         1 <0>         0.0000
     16 H7          0.5919    0.5555    4.5186 H         1 <0>         0.0000
     17 H8          3.5757   -2.0900    3.6776 H         1 <0>         0.0000
@<TRIPOS>BOND
     1    1    2 ar
     2    1    3 ar
     3    1   10 1
     4    2    4 ar
     5    2   11 1
     6    3    5 ar
     7    3   12 1
     8    4    6 ar
     9    4   13 1
    10    5    6 ar
    11    5    8 1
    12    6    9 1
    13    7    9 1
    14    7   14 1
    15    7   15 1
    16    7   16 1
    17    8   17 1
