@<TRIPOS>MOLECULE
*****
   30    31     0     0     0
SMALL
NO_CHARGES

@<TRIPOS>ATOM
      1 C1         -3.0264   -1.2773   -4.9872 C.ar      1 <0>         0.0000
      2 C2         -2.0766   -0.2716   -5.1832 C.ar      1 <0>         0.0000
      3 C3         -2.9871   -2.0499   -3.8190 C.ar      1 <0>         0.0000
      4 C4         -1.0923   -0.0402   -4.2145 C.ar      1 <0>         0.0000
      5 C5         -2.0032   -1.8191   -2.8564 C.ar      1 <0>         0.0000
      6 C6         -1.0443   -0.8137   -3.0498 C.ar      1 <0>         0.0000
      7 C7         -0.5200    2.0330   -0.2257 C.3       1 <0>         0.0000
      8 C8          0.4380    1.9081    0.9710 C.3       1 <0>         0.0000
      9 C9         -1.3685    0.7693   -0.4324 C.3       1 <0>         0.0000
     10 C10         1.3942    0.7139    0.8428 C.3       1 <0>         0.0000
     11 C11         0.0349   -0.5856   -2.0125 C.3       1 <0>         0.0000
     12 N1         -0.5609   -0.4503   -0.6692 N.pl3     1 <0>         0.0000
     13 O1          1.3376   -1.9021    0.2298 O.2       1 <0>         0.0000
     14 O2         -0.4231   -0.9492    1.8158 O.2       1 <0>         0.0000
     15 S1          0.4416   -0.8180    0.6399 S.o2      1 <0>         0.0000
     16 H1         -3.7937   -1.4574   -5.7357 H         1 <0>         0.0000
     17 H2         -2.1028    0.3357   -6.0843 H         1 <0>         0.0000
     18 H3         -3.7249   -2.8323   -3.6607 H         1 <0>         0.0000
     19 H4         -0.3577    0.7479   -4.3686 H         1 <0>         0.0000
     20 H5         -1.9760   -2.4068   -1.9427 H         1 <0>         0.0000
     21 H6         -1.1919    2.8833   -0.0667 H         1 <0>         0.0000
     22 H7          0.0507    2.2523   -1.1367 H         1 <0>         0.0000
     23 H8          1.0383    2.8190    1.0692 H         1 <0>         0.0000
     24 H9         -0.1365    1.7986    1.8965 H         1 <0>         0.0000
     25 H10        -1.9952    0.5811    0.4425 H         1 <0>         0.0000
     26 H11        -2.0313    0.8783   -1.2943 H         1 <0>         0.0000
     27 H12         2.0452    0.7875   -0.0334 H         1 <0>         0.0000
     28 H13         2.0114    0.5754    1.7343 H         1 <0>         0.0000
     29 H14         0.7085   -1.4440   -1.9778 H         1 <0>         0.0000
     30 H15         0.6339    0.2939   -2.2895 H         1 <0>         0.0000
@<TRIPOS>BOND
     1    1    3 ar
     2    1    2 ar
     3    1   16 1
     4    2    4 ar
     5    2   17 1
     6    3    5 ar
     7    3   18 1
     8    4    6 ar
     9    4   19 1
    10    5    6 ar
    11    5   20 1
    12    6   11 1
    13    7    8 1
    14    7    9 1
    15    7   21 1
    16    7   22 1
    17    8   10 1
    18    8   23 1
    19    8   24 1
    20    9   12 1
    21    9   25 1
    22    9   26 1
    23   10   15 1
    24   10   27 1
    25   10   28 1
    26   11   12 1
    27   11   29 1
    28   11   30 1
    29   12   15 1
    30   13   15 2
    31   14   15 2
