@<TRIPOS>MOLECULE
*****
   52    54     0     0     0
SMALL
NO_CHARGES

@<TRIPOS>ATOM
      1 C1          3.7776   -0.3919    1.8508 C.ar      1 <0>         0.0000
      2 C2          2.6082    0.3409    2.0716 C.ar      1 <0>         0.0000
      3 C3         -2.7893    0.2357   -0.9257 C.ar      1 <0>         0.0000
      4 C4         -3.0507   -0.7656    1.2383 C.ar      1 <0>         0.0000
      5 C5          2.0166    0.0955   -0.2732 C.ar      1 <0>         0.0000
      6 C6         -1.6147    0.8687   -0.5162 C.ar      1 <0>         0.0000
      7 C7          4.0870   -0.8903    0.5889 C.ar      1 <0>         0.0000
      8 C8         -3.5320   -0.5760   -0.0594 C.ar      1 <0>         0.0000
      9 C9         -1.8657   -0.1585    1.6637 C.ar      1 <0>         0.0000
     10 C10         3.1990   -0.6420   -0.4772 C.ar      1 <0>         0.0000
     11 C11         1.7252    0.5967    1.0216 C.ar      1 <0>         0.0000
     12 C12        -1.1331    0.6798    0.7975 C.ar      1 <0>         0.0000
     13 C13         0.9829    0.2505   -1.3343 C.2       1 <0>         0.0000
     14 C14         8.7636   -1.4621    0.0736 C.2       1 <0>         0.0000
     15 C15         7.6716   -1.5154   -0.7067 C.2       1 <0>         0.0000
     16 C16        -0.8693    1.7176   -1.5241 C.3       1 <0>         0.0000
     17 C17        -4.7881   -1.2684   -0.5320 C.3       1 <0>         0.0000
     18 C18         7.6060   -2.3766   -1.9441 C.3       1 <0>         0.0000
     19 C19        -0.5454   -1.4550    3.1252 C.3       1 <0>         0.0000
     20 C20         3.3464   -0.4657   -2.9079 C.3       1 <0>         0.0000
     21 C21         6.4179   -0.7463   -0.3611 C.3       1 <0>         0.0000
     22 C22         5.3678   -1.6531    0.3334 C.3       1 <0>         0.0000
     23 O1          0.5187   -0.6471   -2.0090 O.2       1 <0>         0.0000
     24 O2          0.5574    1.5407   -1.3992 O.3       1 <0>         0.0000
     25 O3          5.8668   -2.1304    1.5827 O.3       1 <0>         0.0000
     26 O4         -1.4653   -0.3647    2.9636 O.3       1 <0>         0.0000
     27 O5          3.5913   -1.1633   -1.6798 O.3       1 <0>         0.0000
     28 S1          0.2773    1.5791    1.4642 S.3       1 <0>         0.0000
     29 H1          4.4579   -0.5995    2.6696 H         1 <0>         0.0000
     30 H2          2.3642    0.6922    3.0695 H         1 <0>         0.0000
     31 H3         -3.1246    0.3655   -1.9527 H         1 <0>         0.0000
     32 H4         -3.5890   -1.3878    1.9491 H         1 <0>         0.0000
     33 H5          8.8058   -0.8147    0.9470 H         1 <0>         0.0000
     34 H6          9.6573   -2.0386   -0.1552 H         1 <0>         0.0000
     35 H7         -1.1964    1.4772   -2.5387 H         1 <0>         0.0000
     36 H8         -1.0156    2.7846   -1.3391 H         1 <0>         0.0000
     37 H9         -4.5464   -2.2310   -0.9984 H         1 <0>         0.0000
     38 H10        -5.4712   -1.4668    0.2988 H         1 <0>         0.0000
     39 H11        -5.3195   -0.6678   -1.2760 H         1 <0>         0.0000
     40 H12         6.7529   -3.0642   -1.9068 H         1 <0>         0.0000
     41 H13         8.5170   -2.9651   -2.0809 H         1 <0>         0.0000
     42 H14         7.4630   -1.7510   -2.8340 H         1 <0>         0.0000
     43 H15        -0.2839   -1.4795    4.1848 H         1 <0>         0.0000
     44 H16         0.3589   -1.3035    2.5278 H         1 <0>         0.0000
     45 H17        -1.0169   -2.4038    2.8388 H         1 <0>         0.0000
     46 H18         4.2093   -0.6711   -3.5464 H         1 <0>         0.0000
     47 H19         3.2696    0.6137   -2.7386 H         1 <0>         0.0000
     48 H20         2.4341   -0.8298   -3.3829 H         1 <0>         0.0000
     49 H21         5.9685   -0.3290   -1.2670 H         1 <0>         0.0000
     50 H22         6.6437    0.0799    0.3200 H         1 <0>         0.0000
     51 H23         5.1432   -2.5011   -0.3252 H         1 <0>         0.0000
     52 H24         6.7766   -2.4378    1.4247 H         1 <0>         0.0000
@<TRIPOS>BOND
     1    1    2 ar
     2    1    7 ar
     3    1   29 1
     4    2   11 ar
     5    2   30 1
     6    3    6 ar
     7    3    8 ar
     8    3   31 1
     9    4    8 ar
    10    4    9 ar
    11    4   32 1
    12    5   10 ar
    13    5   11 ar
    14    5   13 1
    15    6   12 ar
    16    6   16 1
    17    7   10 ar
    18    7   22 1
    19    8   17 1
    20    9   12 ar
    21    9   26 1
    22   10   27 1
    23   11   28 1
    24   12   28 1
    25   13   23 2
    26   13   24 1
    27   14   15 2
    28   14   33 1
    29   14   34 1
    30   15   18 1
    31   15   21 1
    32   16   24 1
    33   16   35 1
    34   16   36 1
    35   17   37 1
    36   17   38 1
    37   17   39 1
    38   18   40 1
    39   18   41 1
    40   18   42 1
    41   19   26 1
    42   19   43 1
    43   19   44 1
    44   19   45 1
    45   20   27 1
    46   20   46 1
    47   20   47 1
    48   20   48 1
    49   21   22 1
    50   21   49 1
    51   21   50 1
    52   22   25 1
    53   22   51 1
    54   25   52 1
