@<TRIPOS>MOLECULE
*****
   16    17     0     0     0
SMALL
NO_CHARGES

@<TRIPOS>ATOM
      1 C1          0.6068    0.9049    1.8655 C.ar      1 <0>         0.0000
      2 C2          0.2329    0.9493    3.2115 C.ar      1 <0>         0.0000
      3 C3         -0.1820    0.1122    1.0302 C.ar      1 <0>         0.0000
      4 C4         -4.2208   -2.0864    4.4638 C.2       1 <0>         0.0000
      5 C5         -4.3776   -2.5145    3.1770 C.2       1 <0>         0.0000
      6 C6         -1.5044   -0.4539    2.7925 C.ar      1 <0>         0.0000
      7 C7         -2.6644   -1.1991    3.3070 C.2       1 <0>         0.0000
      8 N1         -0.8178    0.2766    3.6873 N.ar      1 <0>         0.0000
      9 N2         -1.2391   -0.5716    1.4800 N.ar      1 <0>         0.0000
     10 N3         -3.1225   -1.2472    4.5299 N.2       1 <0>         0.0000
     11 O1         -3.3863   -1.9535    2.4235 O.3       1 <0>         0.0000
     12 H1          1.4633    1.4563    1.4906 H         1 <0>         0.0000
     13 H2          0.7930    1.5431    3.9328 H         1 <0>         0.0000
     14 H3          0.0368    0.0198   -0.0328 H         1 <0>         0.0000
     15 H4         -4.8157   -2.3216    5.3361 H         1 <0>         0.0000
     16 H5         -5.0735   -3.1604    2.6623 H         1 <0>         0.0000
@<TRIPOS>BOND
     1    1    3 ar
     2    1    2 ar
     3    1   12 1
     4    2    8 ar
     5    2   13 1
     6    3    9 ar
     7    3   14 1
     8    4    5 2
     9    4   10 1
    10    4   15 1
    11    5   11 1
    12    5   16 1
    13    6    7 1
    14    6    9 ar
    15    6    8 ar
    16    7   10 2
    17    7   11 1
