@<TRIPOS>MOLECULE
*****
   43    46     0     0     0
SMALL
NO_CHARGES

@<TRIPOS>ATOM
      1 C1         -0.7321   -3.5601    5.7998 C.ar      1 <0>         0.0000
      2 C2         -0.2026   -3.8230    7.0460 C.ar      1 <0>         0.0000
      3 C3          1.7367   -4.9125    6.0325 C.ar      1 <0>         0.0000
      4 C4          1.2582   -4.7337    2.3314 C.ar      1 <0>         0.0000
      5 C5          1.1944   -4.6451    4.7498 C.ar      1 <0>         0.0000
      6 C6         -0.0537   -3.9616    4.6173 C.ar      1 <0>         0.0000
      7 C7          1.8466   -5.0290    3.5416 C.ar      1 <0>         0.0000
      8 C8          1.0318   -4.4995    7.1360 C.ar      1 <0>         0.0000
      9 C9          0.0119   -4.0515    2.3174 C.ar      1 <0>         0.0000
     10 C10         1.4191    0.3143   -1.8539 C.3       1 <0>         0.0000
     11 C11         0.0760   -0.8354   -3.4767 C.3       1 <0>         0.0000
     12 C12        -0.2171   -3.1182   -1.3971 C.3       1 <0>         0.0000
     13 C13         0.9751   -2.1075    0.0226 C.3       1 <0>         0.0000
     14 C14         0.9048    1.6398   -2.4069 C.3       1 <0>         0.0000
     15 C15        -0.4085    0.5155   -3.9939 C.3       1 <0>         0.0000
     16 C16         0.8509   -2.0039   -1.5162 C.3       1 <0>         0.0000
     17 C17        -0.6557   -3.7540    0.9892 C.3       1 <0>         0.0000
     18 N1         -0.6249   -3.6694    3.4094 N.ar      1 <0>         0.0000
     19 N2          0.4117   -0.7318   -2.0536 N.3       1 <0>         0.0000
     20 N3          0.3103   -3.4335   -0.0481 N.3       1 <0>         0.0000
     21 O1          0.5703    1.5329   -3.7897 O.3       1 <0>         0.0000
     22 O2          3.0407   -5.6793    3.6648 O.3       1 <0>         0.0000
     23 F1          1.5300   -4.7442    8.3766 F         1 <0>         0.0000
     24 H1         -1.6793   -3.0416    5.6881 H         1 <0>         0.0000
     25 H2         -0.7098   -3.5236    7.9583 H         1 <0>         0.0000
     26 H3          2.6832   -5.4304    6.1402 H         1 <0>         0.0000
     27 H4          1.7210   -4.9944    1.3827 H         1 <0>         0.0000
     28 H5          2.3737    0.0573   -2.3515 H         1 <0>         0.0000
     29 H6          1.6175    0.4208   -0.7817 H         1 <0>         0.0000
     30 H7         -0.7186   -1.5792   -3.6045 H         1 <0>         0.0000
     31 H8          0.9469   -1.1642   -4.0752 H         1 <0>         0.0000
     32 H9         -1.2274   -2.6811   -1.3745 H         1 <0>         0.0000
     33 H10        -0.1882   -3.9526   -2.1059 H         1 <0>         0.0000
     34 H11         1.9743   -2.1193    0.4696 H         1 <0>         0.0000
     35 H12         0.3557   -1.3448    0.5190 H         1 <0>         0.0000
     36 H13         0.0221    1.9595   -1.8322 H         1 <0>         0.0000
     37 H14         1.6739    2.4130   -2.3340 H         1 <0>         0.0000
     38 H15        -0.5908    0.4739   -5.0709 H         1 <0>         0.0000
     39 H16        -1.3449    0.7895   -3.4840 H         1 <0>         0.0000
     40 H17         1.7622   -2.3768   -2.0160 H         1 <0>         0.0000
     41 H18        -1.2116   -4.6450    0.6665 H         1 <0>         0.0000
     42 H19        -1.3932   -2.9510    1.1528 H         1 <0>         0.0000
     43 H20         3.3794   -5.8896    2.7790 H         1 <0>         0.0000
@<TRIPOS>BOND
     1    1    2 ar
     2    1    6 ar
     3    1   24 1
     4    2    8 ar
     5    2   25 1
     6    3    5 ar
     7    3    8 ar
     8    3   26 1
     9    4    7 ar
    10    4    9 ar
    11    4   27 1
    12    5    6 ar
    13    5    7 ar
    14    6   18 ar
    15    7   22 1
    16    8   23 1
    17    9   17 1
    18    9   18 ar
    19   10   14 1
    20   10   19 1
    21   10   28 1
    22   10   29 1
    23   11   15 1
    24   11   19 1
    25   11   30 1
    26   11   31 1
    27   12   16 1
    28   12   20 1
    29   12   32 1
    30   12   33 1
    31   13   16 1
    32   13   20 1
    33   13   34 1
    34   13   35 1
    35   14   21 1
    36   14   36 1
    37   14   37 1
    38   15   21 1
    39   15   38 1
    40   15   39 1
    41   16   19 1
    42   16   40 1
    43   17   20 1
    44   17   41 1
    45   17   42 1
    46   22   43 1
