@<TRIPOS>MOLECULE
*****
   25    26     0     0     0
SMALL
NO_CHARGES

@<TRIPOS>ATOM
      1 C1         -4.0799   -1.1714   -0.2957 C.ar      1 <0>         0.0000
      2 C2         -4.1238    0.1388   -0.7826 C.ar      1 <0>         0.0000
      3 C3         -2.3370   -1.6712   -1.9260 C.ar      1 <0>         0.0000
      4 C4         -2.3685   -0.3540   -2.4049 C.ar      1 <0>         0.0000
      5 C5         -3.1853   -2.0512   -0.8932 C.ar      1 <0>         0.0000
      6 C6         -3.2952    0.5277   -1.8255 C.ar      1 <0>         0.0000
      7 C7          0.4584    0.3465   -0.4911 C.3       1 <0>         0.0000
      8 C8          1.1145   -0.4923   -1.5868 C.3       1 <0>         0.0000
      9 C9          0.2271    1.4026   -2.5412 C.3       1 <0>         0.0000
     10 C10        -0.8880    1.2038   -3.5666 C.3       1 <0>         0.0000
     11 O1         -0.3064    1.3112   -1.2255 O.3       1 <0>         0.0000
     12 O2          1.2709    0.4484   -2.6558 O.3       1 <0>         0.0000
     13 O3         -1.5399   -0.0717   -3.4551 O.3       1 <0>         0.0000
     14 F1         -3.1246   -3.3345   -0.4487 F         1 <0>         0.0000
     15 F2         -3.3992    1.8041   -2.2856 F         1 <0>         0.0000
     16 H1         -4.7234   -1.5030    0.5120 H         1 <0>         0.0000
     17 H2         -4.8099    0.8701   -0.3667 H         1 <0>         0.0000
     18 H3         -1.6537   -2.3856   -2.3722 H         1 <0>         0.0000
     19 H4         -0.2275   -0.2239    0.1401 H         1 <0>         0.0000
     20 H5          1.2021    0.8574    0.1331 H         1 <0>         0.0000
     21 H6          2.1044   -0.8667   -1.3170 H         1 <0>         0.0000
     22 H7          0.4762   -1.3255   -1.8986 H         1 <0>         0.0000
     23 H8          0.6726    2.3952   -2.7047 H         1 <0>         0.0000
     24 H9         -0.4446    1.1995   -4.5644 H         1 <0>         0.0000
     25 H10        -1.5997    2.0272   -3.4920 H         1 <0>         0.0000
@<TRIPOS>BOND
     1    1    2 ar
     2    1    5 ar
     3    1   16 1
     4    2    6 ar
     5    2   17 1
     6    3    4 ar
     7    3    5 ar
     8    3   18 1
     9    4    6 ar
    10    4   13 1
    11    5   14 1
    12    6   15 1
    13    7    8 1
    14    7   11 1
    15    7   19 1
    16    7   20 1
    17    8   12 1
    18    8   21 1
    19    8   22 1
    20    9   10 1
    21    9   12 1
    22    9   11 1
    23    9   23 1
    24   10   13 1
    25   10   24 1
    26   10   25 1
