@<TRIPOS>MOLECULE
*****
   22    23     0     0     0
SMALL
NO_CHARGES

@<TRIPOS>ATOM
      1 C1          2.1262   -1.0720    0.2102 C.ar      1 <0>         0.0000
      2 C2          2.9342   -1.4855    1.2754 C.ar      1 <0>         0.0000
      3 C3          0.8250   -0.6202    0.4579 C.ar      1 <0>         0.0000
      4 C4          1.5593    2.3573    5.3159 C.ar      1 <0>         0.0000
      5 C5          1.0185    2.2470    6.6010 C.ar      1 <0>         0.0000
      6 C6          2.4477   -1.4443    2.5859 C.ar      1 <0>         0.0000
      7 C7          0.3295   -0.5753    1.7648 C.ar      1 <0>         0.0000
      8 C8          1.4583    1.2841    4.4324 C.ar      1 <0>         0.0000
      9 C9          0.3937    1.0449    6.9388 C.ar      1 <0>         0.0000
     10 C10         1.1492   -0.9873    2.8168 C.ar      1 <0>         0.0000
     11 C11         0.8056    0.1263    4.8898 C.ar      1 <0>         0.0000
     12 N1          0.2848    0.0005    6.1065 N.ar      1 <0>         0.0000
     13 O1          0.6433   -0.9951    4.1132 O.3       1 <0>         0.0000
     14 H1          2.5063   -1.1069   -0.8072 H         1 <0>         0.0000
     15 H2          3.9430   -1.8437    1.0876 H         1 <0>         0.0000
     16 H3          0.1919   -0.3048   -0.3672 H         1 <0>         0.0000
     17 H4          2.0570    3.2705    4.9997 H         1 <0>         0.0000
     18 H5          1.0773    3.0607    7.3172 H         1 <0>         0.0000
     19 H6          3.0562   -1.7646    3.4266 H         1 <0>         0.0000
     20 H7         -0.6787   -0.2322    1.9782 H         1 <0>         0.0000
     21 H8          1.8675    1.3402    3.4307 H         1 <0>         0.0000
     22 H9         -0.0436    0.9078    7.9267 H         1 <0>         0.0000
@<TRIPOS>BOND
     1    1    3 ar
     2    1    2 ar
     3    1   14 1
     4    2    6 ar
     5    2   15 1
     6    3    7 ar
     7    3   16 1
     8    4    5 ar
     9    4    8 ar
    10    4   17 1
    11    5    9 ar
    12    5   18 1
    13    6   10 ar
    14    6   19 1
    15    7   10 ar
    16    7   20 1
    17    8   11 ar
    18    8   21 1
    19    9   12 ar
    20    9   22 1
    21   10   13 1
    22   11   12 ar
    23   11   13 1
