@<TRIPOS>MOLECULE
*****
   17    17     0     0     0
SMALL
NO_CHARGES

@<TRIPOS>ATOM
      1 C1          3.7409   -0.8400   -0.6180 C.1       1 <0>         0.0000
      2 C2          6.5324   -3.0985   -0.9082 C.ar      1 <0>         0.0000
      3 C3          7.6244   -3.6914   -0.2767 C.ar      1 <0>         0.0000
      4 C4          6.0244   -1.9089    1.1435 C.ar      1 <0>         0.0000
      5 C5          7.1159   -2.4931    1.7961 C.ar      1 <0>         0.0000
      6 C6          5.7277   -2.2027   -0.1959 C.ar      1 <0>         0.0000
      7 C7          7.9064   -3.3887    1.0558 C.ar      1 <0>         0.0000
      8 C8          7.4181   -2.1636    3.2359 C.3       1 <0>         0.0000
      9 N1          4.6366   -1.6204   -0.8533 N.2       1 <0>         0.0000
     10 O1          2.8288   -0.0970   -0.5120 O.2       1 <0>         0.0000
     11 Cl1         9.2940   -4.1582    1.8148 Cl        1 <0>         0.0000
     12 H1          6.2991   -3.3230   -1.9440 H         1 <0>         0.0000
     13 H2          8.2577   -4.3881   -0.8163 H         1 <0>         0.0000
     14 H3          5.3931   -1.2116    1.6885 H         1 <0>         0.0000
     15 H4          7.4003   -3.0646    3.8575 H         1 <0>         0.0000
     16 H5          8.4164   -1.7260    3.3376 H         1 <0>         0.0000
     17 H6          6.6884   -1.4549    3.6341 H         1 <0>         0.0000
@<TRIPOS>BOND
     1    1    9 2
     2    1   10 2
     3    2    3 ar
     4    2    6 ar
     5    2   12 1
     6    3    7 ar
     7    3   13 1
     8    4    5 ar
     9    4    6 ar
    10    4   14 1
    11    5    7 ar
    12    5    8 1
    13    6    9 1
    14    7   11 1
    15    8   15 1
    16    8   16 1
    17    8   17 1
