@<TRIPOS>MOLECULE
*****
   26    27     0     0     0
SMALL
NO_CHARGES

@<TRIPOS>ATOM
      1 C1          0.9811    1.8620    1.8936 C.ar      1 <0>         0.0000
      2 C2         -0.1200    1.2819    1.2448 C.ar      1 <0>         0.0000
      3 C3          0.8883    2.4111    3.1712 C.ar      1 <0>         0.0000
      4 C4         -0.3509    2.3933    3.8502 C.ar      1 <0>         0.0000
      5 C5         -1.3403    1.2529    1.9265 C.ar      1 <0>         0.0000
      6 C6         -1.4500    1.8070    3.2125 C.ar      1 <0>         0.0000
      7 C7          0.2667   -0.8751   -0.1090 C.3       1 <0>         0.0000
      8 C8          1.7425   -0.5390   -0.4409 C.3       1 <0>         0.0000
      9 C9          0.0125    0.6671   -0.1406 C.3       1 <0>         0.0000
     10 C10         3.1920    3.0284    3.2207 C.3       1 <0>         0.0000
     11 N1          1.3018    0.8180   -0.8529 N.3       1 <0>         0.0000
     12 O1         -0.3935    2.9489    5.0898 O.3       1 <0>         0.0000
     13 O2          1.9171    2.9870    3.8535 O.3       1 <0>         0.0000
     14 Br1        -2.8606    0.4211    1.1051 Br        1 <0>         0.0000
     15 Br2        -3.1042    1.8026    4.1851 Br        1 <0>         0.0000
     16 H1          1.9360    1.8727    1.3833 H         1 <0>         0.0000
     17 H2         -0.2482   -1.3957   -0.9184 H         1 <0>         0.0000
     18 H3          0.0683   -1.3764    0.8390 H         1 <0>         0.0000
     19 H4          2.3855   -0.5614    0.4506 H         1 <0>         0.0000
     20 H5          2.2208   -1.1137   -1.2409 H         1 <0>         0.0000
     21 H6         -0.8381    0.9862   -0.7491 H         1 <0>         0.0000
     22 H7          3.8585    3.5181    3.9313 H         1 <0>         0.0000
     23 H8          3.1587    3.6119    2.2921 H         1 <0>         0.0000
     24 H9          3.5658    2.0191    3.0077 H         1 <0>         0.0000
     25 H10         1.8931    1.6037   -0.5928 H         1 <0>         0.0000
     26 H11        -1.3026    2.8627    5.4327 H         1 <0>         0.0000
@<TRIPOS>BOND
     1    1    2 ar
     2    1    3 ar
     3    1   16 1
     4    2    5 ar
     5    2    9 1
     6    3    4 ar
     7    3   13 1
     8    4    6 ar
     9    4   12 1
    10    5    6 ar
    11    5   14 1
    12    6   15 1
    13    7    8 1
    14    7    9 1
    15    7   17 1
    16    7   18 1
    17    8   11 1
    18    8   19 1
    19    8   20 1
    20    9   11 1
    21    9   21 1
    22   10   13 1
    23   10   22 1
    24   10   23 1
    25   10   24 1
    26   11   25 1
    27   12   26 1
