@<TRIPOS>MOLECULE
*****
   17    17     0     0     0
SMALL
NO_CHARGES

@<TRIPOS>ATOM
      1 C1          1.1031   -4.2003    0.9929 C.1       1 <0>         0.0000
      2 C2         -0.3180   -0.9638    0.4118 C.2       1 <0>         0.0000
      3 C3         -0.9554    1.1835    0.6365 C.2       1 <0>         0.0000
      4 C4         -1.0383   -2.9399   -1.0147 C.3       1 <0>         0.0000
      5 C5          0.0464   -2.3172   -0.1264 C.3       1 <0>         0.0000
      6 N1          1.7767   -5.1576    0.9010 N.1       1 <0>         0.0000
      7 N2         -0.6204    0.6730    1.8562 N.2       1 <0>         0.0000
      8 N3         -0.2313   -0.6480    1.6810 N.2       1 <0>         0.0000
      9 N4         -0.7558    0.1181   -0.3063 N.am      1 <0>         0.0000
     10 N5          0.2843   -3.1548    1.0726 N.3       1 <0>         0.0000
     11 O1         -1.3618    2.3164    0.2971 O.2       1 <0>         0.0000
     12 H1         -1.9812   -3.0061   -0.4644 H         1 <0>         0.0000
     13 H2         -1.1973   -2.3288   -1.9105 H         1 <0>         0.0000
     14 H3         -0.7407   -3.9443   -1.3363 H         1 <0>         0.0000
     15 H4          0.9786   -2.2558   -0.7102 H         1 <0>         0.0000
     16 H5         -0.9417    0.1942   -1.2952 H         1 <0>         0.0000
     17 H6          0.3192   -2.5637    1.9157 H         1 <0>         0.0000
@<TRIPOS>BOND
     1    1    6 3
     2    1   10 1
     3    2    5 1
     4    2    8 2
     5    2    9 1
     6    3    7 1
     7    3    9 am
     8    3   11 2
     9    4    5 1
    10    4   12 1
    11    4   13 1
    12    4   14 1
    13    5   10 1
    14    5   15 1
    15    7    8 1
    16    9   16 1
    17   10   17 1
