@<TRIPOS>MOLECULE
*****
   23    24     0     0     0
SMALL
NO_CHARGES

@<TRIPOS>ATOM
      1 C1          2.0444   -0.8584   -0.4914 C.ar      1 <0>         0.0000
      2 C2          0.9740   -0.1959    0.1163 C.ar      1 <0>         0.0000
      3 C3          2.9889   -1.5109    0.2978 C.ar      1 <0>         0.0000
      4 C4          0.8599   -0.1981    1.5071 C.ar      1 <0>         0.0000
      5 C5          2.8837   -1.5116    1.7006 C.ar      1 <0>         0.0000
      6 C6          1.7988   -0.8451    2.3221 C.ar      1 <0>         0.0000
      7 C7          3.9162   -2.2181    2.4643 C.2       1 <0>         0.0000
      8 C8          5.2693   -3.0355    3.8604 C.2       1 <0>         0.0000
      9 C9          5.9459   -3.3231    5.1584 C.3       1 <0>         0.0000
     10 C10         1.5845   -0.8174    3.8017 C.3       1 <0>         0.0000
     11 N1          4.1983   -2.1729    3.7425 N.2       1 <0>         0.0000
     12 N2          5.6424   -3.5879    2.7287 N.2       1 <0>         0.0000
     13 O1          4.7419   -3.0482    1.7863 O.3       1 <0>         0.0000
     14 Br1         0.6553   -2.4854    4.4139 Br        1 <0>         0.0000
     15 H1          2.1444   -0.8664   -1.5730 H         1 <0>         0.0000
     16 H2          0.2307    0.3166   -0.4883 H         1 <0>         0.0000
     17 H3          3.8233   -2.0241   -0.1682 H         1 <0>         0.0000
     18 H4          0.0181    0.3037    1.9775 H         1 <0>         0.0000
     19 H5          5.2259   -3.7411    5.8680 H         1 <0>         0.0000
     20 H6          6.7634   -4.0310    5.0130 H         1 <0>         0.0000
     21 H7          6.3399   -2.3981    5.5894 H         1 <0>         0.0000
     22 H8          0.9156   -0.0111    4.0941 H         1 <0>         0.0000
     23 H9          2.5031   -0.8023    4.3776 H         1 <0>         0.0000
@<TRIPOS>BOND
     1    1    2 ar
     2    1    3 ar
     3    1   15 1
     4    2    4 ar
     5    2   16 1
     6    3    5 ar
     7    3   17 1
     8    4    6 ar
     9    4   18 1
    10    5    6 ar
    11    5    7 1
    12    6   10 1
    13    7   11 2
    14    7   13 1
    15    8    9 1
    16    8   11 1
    17    8   12 2
    18    9   19 1
    19    9   20 1
    20    9   21 1
    21   10   14 1
    22   10   22 1
    23   10   23 1
    24   12   13 1
