@<TRIPOS>MOLECULE
*****
   25    26     0     0     0
SMALL
NO_CHARGES

@<TRIPOS>ATOM
      1 C1         -0.4712   -7.3300   -2.5899 C.ar      1 <0>         0.0000
      2 C2         -0.5683   -6.3811   -1.5724 C.ar      1 <0>         0.0000
      3 C3         -1.4300   -7.3896   -3.6057 C.ar      1 <0>         0.0000
      4 C4         -1.6304   -5.4649   -1.5360 C.ar      1 <0>         0.0000
      5 C5         -2.4889   -6.4909   -3.5579 C.ar      1 <0>         0.0000
      6 C6         -2.6099   -5.5520   -2.5351 C.ar      1 <0>         0.0000
      7 C7          1.0108   -3.0696   -1.5868 C.3       1 <0>         0.0000
      8 C8          0.3961   -3.0334   -2.9852 C.3       1 <0>         0.0000
      9 C9         -1.1726   -2.3663   -1.4151 C.3       1 <0>         0.0000
     10 C10        -2.1281   -3.2529   -0.6180 C.3       1 <0>         0.0000
     11 O1          0.1127   -2.2551   -0.8238 O.3       1 <0>         0.0000
     12 O2         -1.0066   -2.8928   -2.7261 O.3       1 <0>         0.0000
     13 O3         -1.6634   -4.6044   -0.4730 O.3       1 <0>         0.0000
     14 F1         -3.4469   -6.5200   -4.5104 F         1 <0>         0.0000
     15 F2         -3.6862   -4.7335   -2.5401 F         1 <0>         0.0000
     16 H1          0.3609   -8.0277   -2.5946 H         1 <0>         0.0000
     17 H2          0.1697   -6.3301   -0.7781 H         1 <0>         0.0000
     18 H3         -1.3778   -8.1106   -4.4148 H         1 <0>         0.0000
     19 H4          1.0433   -4.0872   -1.1837 H         1 <0>         0.0000
     20 H5          2.0045   -2.6190   -1.5345 H         1 <0>         0.0000
     21 H6          0.7555   -2.1762   -3.5679 H         1 <0>         0.0000
     22 H7          0.5473   -3.9567   -3.5498 H         1 <0>         0.0000
     23 H8         -1.6000   -1.3535   -1.4612 H         1 <0>         0.0000
     24 H9         -3.1205   -3.2136   -1.0698 H         1 <0>         0.0000
     25 H10        -2.1830   -2.8711    0.4036 H         1 <0>         0.0000
@<TRIPOS>BOND
     1    1    2 ar
     2    1    3 ar
     3    1   16 1
     4    2    4 ar
     5    2   17 1
     6    3    5 ar
     7    3   18 1
     8    4    6 ar
     9    4   13 1
    10    5    6 ar
    11    5   14 1
    12    6   15 1
    13    7    8 1
    14    7   11 1
    15    7   19 1
    16    7   20 1
    17    8   12 1
    18    8   21 1
    19    8   22 1
    20    9   10 1
    21    9   12 1
    22    9   11 1
    23    9   23 1
    24   10   13 1
    25   10   24 1
    26   10   25 1
