@<TRIPOS>MOLECULE
*****
   23    23     0     0     0
SMALL
NO_CHARGES

@<TRIPOS>ATOM
      1 C1         -0.8374    0.5841    1.7223 C.3       1 <0>         0.0000
      2 C2         -1.6313    1.2364    0.5824 C.3       1 <0>         0.0000
      3 C3         -0.1028   -0.6846    1.2818 C.3       1 <0>         0.0000
      4 C4         -0.7404    1.5759   -0.6162 C.3       1 <0>         0.0000
      5 C5          3.0089   -1.3493    0.9857 C.3       1 <0>         0.0000
      6 C6          1.8706   -1.4551   -0.0285 C.3       1 <0>         0.0000
      7 N1          0.8626   -0.3913    0.1972 N.pl3     1 <0>         0.0000
      8 O1         -0.9923   -0.8800   -1.6052 O.2       1 <0>         0.0000
      9 O2          1.0965    0.4276   -2.2182 O.2       1 <0>         0.0000
     10 S1          0.0631    0.0809   -1.2369 S.o2      1 <0>         0.0000
     11 H1         -0.1002    1.2954    2.1127 H         1 <0>         0.0000
     12 H2         -1.5166    0.3309    2.5434 H         1 <0>         0.0000
     13 H3         -2.4310    0.5673    0.2487 H         1 <0>         0.0000
     14 H4         -2.1055    2.1597    0.9322 H         1 <0>         0.0000
     15 H5          0.4762   -1.0784    2.1202 H         1 <0>         0.0000
     16 H6         -0.8125   -1.4649    0.9703 H         1 <0>         0.0000
     17 H7         -1.3107    1.9641   -1.4641 H         1 <0>         0.0000
     18 H8          0.0652    2.2705   -0.3683 H         1 <0>         0.0000
     19 H9          3.4963   -0.3737    0.9074 H         1 <0>         0.0000
     20 H10         2.6607   -1.4783    2.0154 H         1 <0>         0.0000
     21 H11         3.7527   -2.1285    0.7890 H         1 <0>         0.0000
     22 H12         1.3957   -2.4452    0.0111 H         1 <0>         0.0000
     23 H13         2.2731   -1.3211   -1.0341 H         1 <0>         0.0000
@<TRIPOS>BOND
     1    1    2 1
     2    1    3 1
     3    1   11 1
     4    1   12 1
     5    2    4 1
     6    2   13 1
     7    2   14 1
     8    3    7 1
     9    3   15 1
    10    3   16 1
    11    4   10 1
    12    4   17 1
    13    4   18 1
    14    5    6 1
    15    5   19 1
    16    5   20 1
    17    5   21 1
    18    6    7 1
    19    6   22 1
    20    6   23 1
    21    7   10 1
    22    8   10 2
    23    9   10 2
