@<TRIPOS>MOLECULE
*****
   27    27     0     0     0
SMALL
NO_CHARGES

@<TRIPOS>ATOM
      1 C1          2.0018   -1.3683   -0.1561 C.ar      1 <0>         0.0000
      2 C2          0.9092   -1.0539    0.6473 C.ar      1 <0>         0.0000
      3 C3          3.3643   -1.6605    1.8133 C.ar      1 <0>         0.0000
      4 C4          3.2461   -1.6777    0.4107 C.ar      1 <0>         0.0000
      5 C5          2.2913   -1.3484    2.6444 C.ar      1 <0>         0.0000
      6 C6          1.0488   -1.0409    2.0446 C.ar      1 <0>         0.0000
      7 C7          4.3853   -2.0105   -0.4914 C.2       1 <0>         0.0000
      8 C8          2.4223   -1.3275    4.1465 C.3       1 <0>         0.0000
      9 C9          5.7331   -2.3464    0.1277 C.3       1 <0>         0.0000
     10 C10        -2.0294   -1.7610    2.1002 C.3       1 <0>         0.0000
     11 C11        -1.2784   -0.4758    2.4323 C.3       1 <0>         0.0000
     12 O1          4.2477   -2.0152   -1.7124 O.2       1 <0>         0.0000
     13 O2          0.0492   -0.7281    2.9201 O.3       1 <0>         0.0000
     14 H1          1.9071   -1.3815   -1.2374 H         1 <0>         0.0000
     15 H2         -0.0405   -0.8224    0.1791 H         1 <0>         0.0000
     16 H3          4.3167   -1.8956    2.2800 H         1 <0>         0.0000
     17 H4          2.1850   -0.3375    4.5501 H         1 <0>         0.0000
     18 H5          1.7261   -2.0318    4.6141 H         1 <0>         0.0000
     19 H6          3.4385   -1.5911    4.4514 H         1 <0>         0.0000
     20 H7          5.6548   -3.2143    0.7915 H         1 <0>         0.0000
     21 H8          6.1089   -1.5093    0.7260 H         1 <0>         0.0000
     22 H9          6.4428   -2.5659   -0.6708 H         1 <0>         0.0000
     23 H10        -1.5481   -2.3182    1.2924 H         1 <0>         0.0000
     24 H11        -2.0786   -2.4083    2.9807 H         1 <0>         0.0000
     25 H12        -3.0524   -1.5221    1.7896 H         1 <0>         0.0000
     26 H13        -1.7688    0.0492    3.2554 H         1 <0>         0.0000
     27 H14        -1.2426    0.2102    1.5788 H         1 <0>         0.0000
@<TRIPOS>BOND
     1    1    2 ar
     2    1    4 ar
     3    1   14 1
     4    2    6 ar
     5    2   15 1
     6    3    4 ar
     7    3    5 ar
     8    3   16 1
     9    4    7 1
    10    5    6 ar
    11    5    8 1
    12    6   13 1
    13    7    9 1
    14    7   12 2
    15    8   17 1
    16    8   18 1
    17    8   19 1
    18    9   20 1
    19    9   21 1
    20    9   22 1
    21   10   11 1
    22   10   23 1
    23   10   24 1
    24   10   25 1
    25   11   13 1
    26   11   26 1
    27   11   27 1
