@<TRIPOS>MOLECULE
*****
   25    26     0     0     0
SMALL
NO_CHARGES

@<TRIPOS>ATOM
      1 C1         -0.3892   -1.7989   -3.9370 C.ar      1 <0>         0.0000
      2 C2         -0.0403   -2.5396   -5.0683 C.ar      1 <0>         0.0000
      3 C3         -0.9930   -0.5446   -4.0533 C.ar      1 <0>         0.0000
      4 C4         -0.2866   -2.0133   -6.3301 C.ar      1 <0>         0.0000
      5 C5         -1.2557   -0.0460   -5.3356 C.ar      1 <0>         0.0000
      6 C6         -0.8927   -0.7658   -6.4717 C.ar      1 <0>         0.0000
      7 C7          2.6298    1.8595   -3.3869 C.3       1 <0>         0.0000
      8 C8          2.1827    3.1408   -2.6807 C.3       1 <0>         0.0000
      9 C9          0.6417    1.4299   -2.3938 C.3       1 <0>         0.0000
     10 C10        -0.8477    1.4459   -2.7079 C.3       1 <0>         0.0000
     11 O1          1.3934    1.1610   -3.5634 O.3       1 <0>         0.0000
     12 O2          1.0331    2.7220   -1.9257 O.3       1 <0>         0.0000
     13 O3         -1.3738    0.1230   -2.9153 O.3       1 <0>         0.0000
     14 F1          0.0523   -2.6998   -7.4427 F         1 <0>         0.0000
     15 F2         -1.8670    1.1456   -5.4993 F         1 <0>         0.0000
     16 F3         -1.1418   -0.2605   -7.6917 F         1 <0>         0.0000
     17 H1         -0.1947   -2.1821   -2.9407 H         1 <0>         0.0000
     18 H2          0.4298   -3.5140   -4.9847 H         1 <0>         0.0000
     19 H3          3.0726    2.0216   -4.3710 H         1 <0>         0.0000
     20 H4          3.3175    1.2714   -2.7636 H         1 <0>         0.0000
     21 H5          2.9328    3.5412   -1.9931 H         1 <0>         0.0000
     22 H6          1.8876    3.9173   -3.3958 H         1 <0>         0.0000
     23 H7          0.8693    0.6831   -1.6161 H         1 <0>         0.0000
     24 H8         -1.0330    2.0966   -3.5653 H         1 <0>         0.0000
     25 H9         -1.3830    1.8313   -1.8389 H         1 <0>         0.0000
@<TRIPOS>BOND
     1    1    2 ar
     2    1    3 ar
     3    1   17 1
     4    2    4 ar
     5    2   18 1
     6    3    5 ar
     7    3   13 1
     8    4    6 ar
     9    4   14 1
    10    5    6 ar
    11    5   15 1
    12    6   16 1
    13    7    8 1
    14    7   11 1
    15    7   19 1
    16    7   20 1
    17    8   12 1
    18    8   21 1
    19    8   22 1
    20    9   10 1
    21    9   12 1
    22    9   11 1
    23    9   23 1
    24   10   13 1
    25   10   24 1
    26   10   25 1
