@<TRIPOS>MOLECULE
*****
   48    51     0     0     0
SMALL
NO_CHARGES

@<TRIPOS>ATOM
      1 C1          4.3205   -2.2877   -2.6599 C.ar      1 <0>         0.0000
      2 C2          5.3647   -4.0321   -1.3657 C.ar      1 <0>         0.0000
      3 C3          3.6469   -2.9931    0.9004 C.ar      1 <0>         0.0000
      4 C4          1.9495   -2.6923   -0.7858 C.ar      1 <0>         0.0000
      5 C5          5.3422   -2.3738   -3.6061 C.ar      1 <0>         0.0000
      6 C6          6.3822   -4.1412   -2.3109 C.ar      1 <0>         0.0000
      7 C7          2.6975   -2.8161    1.9078 C.ar      1 <0>         0.0000
      8 C8          0.9860   -2.5246    0.2085 C.ar      1 <0>         0.0000
      9 C9          7.6489   -1.0831   -1.3276 C.ar      1 <0>         0.0000
     10 C10         9.2766   -2.7540   -0.6517 C.ar      1 <0>         0.0000
     11 C11         0.2094   -0.2969    4.9899 C.ar      1 <0>         0.0000
     12 C12         1.6285   -1.0461    6.8165 C.ar      1 <0>         0.0000
     13 C13         7.1068   -1.0844   -0.0411 C.ar      1 <0>         0.0000
     14 C14         8.7402   -2.7560    0.6377 C.ar      1 <0>         0.0000
     15 C15        -0.0999    0.8585    5.7129 C.ar      1 <0>         0.0000
     16 C16         1.3263    0.1129    7.5336 C.ar      1 <0>         0.0000
     17 C17         4.3273   -3.0934   -1.5091 C.ar      1 <0>         0.0000
     18 C18         3.2953   -2.9336   -0.4590 C.ar      1 <0>         0.0000
     19 C19         6.3813   -3.2829   -3.4113 C.ar      1 <0>         0.0000
     20 C20         1.3678   -2.5885    1.5496 C.ar      1 <0>         0.0000
     21 C21         8.7157   -1.9293   -1.6272 C.ar      1 <0>         0.0000
     22 C22         1.0672   -1.2440    5.5534 C.ar      1 <0>         0.0000
     23 C23         7.6533   -1.9280    0.9277 C.ar      1 <0>         0.0000
     24 C24         0.4595    1.0559    6.9765 C.ar      1 <0>         0.0000
     25 O1          7.4156   -3.2407   -4.3613 O.3       1 <0>         0.0000
     26 O2          0.3547   -2.3507    2.4893 O.3       1 <0>         0.0000
     27 O3          9.2051   -1.9296   -2.9431 O.3       1 <0>         0.0000
     28 O4          1.4656   -2.4059    4.8831 O.3       1 <0>         0.0000
     29 S1          8.9946   -3.3715   -3.7964 S.3       1 <0>         0.0000
     30 S2          0.3509   -3.2216    3.9241 S.3       1 <0>         0.0000
     31 Cl1         6.9593   -1.9544    2.5432 Cl        1 <0>         0.0000
     32 Cl2         0.0718    2.5133    7.8776 Cl        1 <0>         0.0000
     33 H1          3.5400   -1.5432   -2.7908 H         1 <0>         0.0000
     34 H2          5.3738   -4.6924   -0.5034 H         1 <0>         0.0000
     35 H3          4.6852   -3.1367    1.1822 H         1 <0>         0.0000
     36 H4          1.6439   -2.6693   -1.8282 H         1 <0>         0.0000
     37 H5          5.3705   -1.7160   -4.4696 H         1 <0>         0.0000
     38 H6          7.1897   -4.8517   -2.1710 H         1 <0>         0.0000
     39 H7          2.9937   -2.8321    2.9509 H         1 <0>         0.0000
     40 H8         -0.0576   -2.3555   -0.0395 H         1 <0>         0.0000
     41 H9          7.2256   -0.4606   -2.1084 H         1 <0>         0.0000
     42 H10        10.1123   -3.4006   -0.9015 H         1 <0>         0.0000
     43 H11        -0.2054   -0.4482    3.9996 H         1 <0>         0.0000
     44 H12         2.2938   -1.7993    7.2275 H         1 <0>         0.0000
     45 H13         6.2569   -0.4537    0.1982 H         1 <0>         0.0000
     46 H14         9.1601   -3.3949    1.4080 H         1 <0>         0.0000
     47 H15        -0.7642    1.6049    5.2894 H         1 <0>         0.0000
     48 H16         1.7535    0.2773    8.5176 H         1 <0>         0.0000
@<TRIPOS>BOND
     1    1    5 ar
     2    1   17 ar
     3    1   33 1
     4    2    6 ar
     5    2   17 ar
     6    2   34 1
     7    3    7 ar
     8    3   18 ar
     9    3   35 1
    10    4    8 ar
    11    4   18 ar
    12    4   36 1
    13    5   19 ar
    14    5   37 1
    15    6   19 ar
    16    6   38 1
    17    7   20 ar
    18    7   39 1
    19    8   20 ar
    20    8   40 1
    21    9   13 ar
    22    9   21 ar
    23    9   41 1
    24   10   14 ar
    25   10   21 ar
    26   10   42 1
    27   11   15 ar
    28   11   22 ar
    29   11   43 1
    30   12   16 ar
    31   12   22 ar
    32   12   44 1
    33   13   23 ar
    34   13   45 1
    35   14   23 ar
    36   14   46 1
    37   15   24 ar
    38   15   47 1
    39   16   24 ar
    40   16   48 1
    41   17   18 1
    42   19   25 1
    43   20   26 1
    44   21   27 1
    45   22   28 1
    46   23   31 1
    47   24   32 1
    48   25   29 1
    49   26   30 1
    50   27   29 1
    51   28   30 1
