@<TRIPOS>MOLECULE
*****
   30    31     0     0     0
SMALL
NO_CHARGES

@<TRIPOS>ATOM
      1 C1          1.4971   -1.8957   -0.0092 C.ar      1 <0>         0.0000
      2 C2          5.2422    0.0095    0.5153 C.ar      1 <0>         0.0000
      3 C3          1.2273   -2.9160    0.9109 C.ar      1 <0>         0.0000
      4 C4          1.8164   -0.6087    0.4335 C.ar      1 <0>         0.0000
      5 C5          5.2279   -1.3510    0.8449 C.ar      1 <0>         0.0000
      6 C6          5.0993    0.9835    1.5091 C.ar      1 <0>         0.0000
      7 C7          1.2793   -2.6569    2.2810 C.ar      1 <0>         0.0000
      8 C8          1.8872   -0.3353    1.8001 C.ar      1 <0>         0.0000
      9 C9          5.0858   -1.7476    2.1746 C.ar      1 <0>         0.0000
     10 C10         4.9350    0.6049    2.8437 C.ar      1 <0>         0.0000
     11 C11         1.6291   -1.3692    2.7018 C.ar      1 <0>         0.0000
     12 C12         4.9342   -0.7576    3.1505 C.ar      1 <0>         0.0000
     13 N1          3.1154   -1.8593    5.1093 N.pl3     1 <0>         0.0000
     14 O1          1.9969    0.4106    4.6445 O.2       1 <0>         0.0000
     15 O2          0.5628   -1.6671    5.1008 O.2       1 <0>         0.0000
     16 O3          5.6122   -2.4320    5.0831 O.2       1 <0>         0.0000
     17 O4          4.8453   -0.0664    5.7064 O.2       1 <0>         0.0000
     18 F1          3.0613   -3.1705    4.5652 F         1 <0>         0.0000
     19 S1          1.6753   -0.9974    4.4479 S.o2      1 <0>         0.0000
     20 S2          4.8011   -1.2456    4.8592 S.o2      1 <0>         0.0000
     21 H1          1.4477   -2.1038   -1.0747 H         1 <0>         0.0000
     22 H2          5.3681    0.3110   -0.5211 H         1 <0>         0.0000
     23 H3          0.9648   -3.9108    0.5629 H         1 <0>         0.0000
     24 H4          2.0137    0.1843   -0.2817 H         1 <0>         0.0000
     25 H5          5.3362   -2.1028    0.0688 H         1 <0>         0.0000
     26 H6          5.1154    2.0379    1.2483 H         1 <0>         0.0000
     27 H7          1.0475   -3.4291    3.0057 H         1 <0>         0.0000
     28 H8          2.1291    0.6559    2.1649 H         1 <0>         0.0000
     29 H9          5.1006   -2.7959    2.4539 H         1 <0>         0.0000
     30 H10         4.8121    1.3379    3.6340 H         1 <0>         0.0000
@<TRIPOS>BOND
     1    1    4 ar
     2    1    3 ar
     3    1   21 1
     4    2    6 ar
     5    2    5 ar
     6    2   22 1
     7    3    7 ar
     8    3   23 1
     9    4    8 ar
    10    4   24 1
    11    5    9 ar
    12    5   25 1
    13    6   10 ar
    14    6   26 1
    15    7   11 ar
    16    7   27 1
    17    8   11 ar
    18    8   28 1
    19    9   12 ar
    20    9   29 1
    21   10   12 ar
    22   10   30 1
    23   11   19 1
    24   12   20 1
    25   13   18 1
    26   13   19 1
    27   13   20 1
    28   14   19 2
    29   15   19 2
    30   16   20 2
    31   17   20 2
