@<TRIPOS>MOLECULE
*****
   20    21     0     0     0
SMALL
NO_CHARGES

@<TRIPOS>ATOM
      1 C1          1.2443    2.3953    2.6979 C.ar      1 <0>         0.0000
      2 C2         -0.7835    1.3505    3.3946 C.ar      1 <0>         0.0000
      3 C3          0.2696    2.2241    3.6790 C.ar      1 <0>         0.0000
      4 C4          0.1490    0.9015    1.3551 C.ar      1 <0>         0.0000
      5 C5         -0.4296   -1.2317    0.0519 C.2       1 <0>         0.0000
      6 C6         -0.3962    1.0282   -1.1580 C.3       1 <0>         0.0000
      7 C7          1.0081    0.5232   -1.0836 C.3       1 <0>         0.0000
      8 C8          0.0336    0.1906    0.0469 C.3       1 <0>         0.0000
      9 N1          1.1870    1.7315    1.5383 N.ar      1 <0>         0.0000
     10 N2         -0.8493    0.6988    2.2338 N.ar      1 <0>         0.0000
     11 O1         -0.9883   -1.7835   -0.8788 O.2       1 <0>         0.0000
     12 O2         -0.0791   -1.8931    1.1829 O.3       1 <0>         0.0000
     13 Br1         0.3602    3.1563    5.3401 Br        1 <0>         0.0000
     14 H1          2.0837    3.0718    2.8459 H         1 <0>         0.0000
     15 H2         -1.5869    1.1835    4.1096 H         1 <0>         0.0000
     16 H3         -0.5731    2.0807   -0.9615 H         1 <0>         0.0000
     17 H4         -1.0868    0.5435   -1.8394 H         1 <0>         0.0000
     18 H5          1.2849   -0.3023   -1.7305 H         1 <0>         0.0000
     19 H6          1.7997    1.2153   -0.8215 H         1 <0>         0.0000
     20 H7         -0.4039   -2.8070    1.0717 H         1 <0>         0.0000
@<TRIPOS>BOND
     1    1    3 ar
     2    1    9 ar
     3    1   14 1
     4    2    3 ar
     5    2   10 ar
     6    2   15 1
     7    3   13 1
     8    4    8 1
     9    4    9 ar
    10    4   10 ar
    11    5    8 1
    12    5   11 2
    13    5   12 1
    14    6    7 1
    15    6    8 1
    16    6   16 1
    17    6   17 1
    18    7    8 1
    19    7   18 1
    20    7   19 1
    21   12   20 1
