@<TRIPOS>MOLECULE
*****
   49    50     0     0     0
SMALL
NO_CHARGES

@<TRIPOS>ATOM
      1 C1          3.5817    5.6992    3.3680 C.ar      1 <0>         0.0000
      2 C2          1.2212    6.2303    3.3740 C.ar      1 <0>         0.0000
      3 C3          3.2995    4.3962    2.9564 C.ar      1 <0>         0.0000
      4 C4          0.9273    4.9371    2.9633 C.ar      1 <0>         0.0000
      5 C5          2.5552    6.6268    3.5808 C.ar      1 <0>         0.0000
      6 C6          1.9649    4.0130    2.7520 C.ar      1 <0>         0.0000
      7 C7         -0.7247   -1.0140    4.9695 C.2       1 <0>         0.0000
      8 C8          0.6487   -1.1040    4.8620 C.2       1 <0>         0.0000
      9 C9         -1.1581   -1.6375    6.1920 C.2       1 <0>         0.0000
     10 C10         2.9216    7.9973    4.0205 C.2       1 <0>         0.0000
     11 C11         1.6130   -0.6479    3.8365 C.2       1 <0>         0.0000
     12 C12         0.3830   -0.7259    0.0778 C.3       1 <0>         0.0000
     13 C13        -0.0318   10.1294    6.0080 C.3       1 <0>         0.0000
     14 C14         1.0157   12.3072    5.2375 C.3       1 <0>         0.0000
     15 C15         0.9962    0.6078    0.5147 C.3       1 <0>         0.0000
     16 C16         2.1030   10.1378    4.6518 C.3       1 <0>         0.0000
     17 C17         2.5727    1.7711    2.1584 C.3       1 <0>         0.0000
     18 C18         0.7674   10.8299    4.9013 C.3       1 <0>         0.0000
     19 C19         1.8863    0.4772    1.7451 C.3       1 <0>         0.0000
     20 N1         -0.2283   -2.1564    6.9543 N.2       1 <0>         0.0000
     21 O1          4.0664    8.3843    4.1948 O.2       1 <0>         0.0000
     22 O2          2.8102   -0.8679    3.9373 O.2       1 <0>         0.0000
     23 O3          1.5737    2.7705    2.3445 O.3       1 <0>         0.0000
     24 O4          1.8355    8.7844    4.2123 O.3       1 <0>         0.0000
     25 O5          1.0267    0.0066    2.8279 O.3       1 <0>         0.0000
     26 S1          1.2690   -1.9338    6.2497 S.3       1 <0>         0.0000
     27 Cl1        -1.8106   -0.2864    3.8481 Cl        1 <0>         0.0000
     28 Cl2        -2.8195   -1.7224    6.6733 Cl        1 <0>         0.0000
     29 H1          4.6082    6.0130    3.5305 H         1 <0>         0.0000
     30 H2          0.4199    6.9427    3.5373 H         1 <0>         0.0000
     31 H3          4.1149    3.6994    2.8011 H         1 <0>         0.0000
     32 H4         -0.0967    4.6142    2.8007 H         1 <0>         0.0000
     33 H5         -0.2612   -1.1358    0.8605 H         1 <0>         0.0000
     34 H6         -0.2242   -0.5942   -0.8230 H         1 <0>         0.0000
     35 H7          1.1584   -1.4672   -0.1474 H         1 <0>         0.0000
     36 H8          0.5083   10.1707    6.9620 H         1 <0>         0.0000
     37 H9         -0.2083    9.0775    5.7666 H         1 <0>         0.0000
     38 H10        -1.0030   10.6143    6.1532 H         1 <0>         0.0000
     39 H11         1.6075   12.4082    6.1552 H         1 <0>         0.0000
     40 H12         0.0680   12.8319    5.3959 H         1 <0>         0.0000
     41 H13         1.5532   12.8209    4.4327 H         1 <0>         0.0000
     42 H14         1.6129    1.0227   -0.2915 H         1 <0>         0.0000
     43 H15         0.2130    1.3414    0.7242 H         1 <0>         0.0000
     44 H16         2.6847   10.6476    3.8776 H         1 <0>         0.0000
     45 H17         2.7120   10.1012    5.5610 H         1 <0>         0.0000
     46 H18         3.1415    1.6174    3.0813 H         1 <0>         0.0000
     47 H19         3.2694    2.0661    1.3620 H         1 <0>         0.0000
     48 H20         0.1909   10.7784    3.9683 H         1 <0>         0.0000
     49 H21         2.6663   -0.2736    1.5865 H         1 <0>         0.0000
@<TRIPOS>BOND
     1    1    3 ar
     2    1    5 ar
     3    1   29 1
     4    2    4 ar
     5    2    5 ar
     6    2   30 1
     7    3    6 ar
     8    3   31 1
     9    4    6 ar
    10    4   32 1
    11    5   10 1
    12    6   23 1
    13    7    8 2
    14    7    9 1
    15    7   27 1
    16    8   11 1
    17    8   26 1
    18    9   20 2
    19    9   28 1
    20   10   21 2
    21   10   24 1
    22   11   22 2
    23   11   25 1
    24   12   15 1
    25   12   33 1
    26   12   34 1
    27   12   35 1
    28   13   18 1
    29   13   36 1
    30   13   37 1
    31   13   38 1
    32   14   18 1
    33   14   39 1
    34   14   40 1
    35   14   41 1
    36   15   19 1
    37   15   42 1
    38   15   43 1
    39   16   18 1
    40   16   24 1
    41   16   44 1
    42   16   45 1
    43   17   19 1
    44   17   23 1
    45   17   46 1
    46   17   47 1
    47   18   48 1
    48   19   25 1
    49   19   49 1
    50   20   26 1
