@<TRIPOS>MOLECULE
*****
   39    40     0     0     0
SMALL
NO_CHARGES

@<TRIPOS>ATOM
      1 C1          4.4275    0.7321    1.4804 C.2       1 <0>         0.0000
      2 C2          3.0869    0.7194    1.7689 C.2       1 <0>         0.0000
      3 C3          4.4690   -0.8878    3.0177 C.2       1 <0>         0.0000
      4 C4         -0.3786    1.5326    0.4926 C.3       1 <0>         0.0000
      5 C5          1.0666   -0.1453   -0.2993 C.3       1 <0>         0.0000
      6 C6         -1.1694    0.6617   -0.5152 C.3       1 <0>         0.0000
      7 C7         -0.3508   -0.6510   -0.6195 C.3       1 <0>         0.0000
      8 C8          5.0146   -1.9612    3.9122 C.3       1 <0>         0.0000
      9 C9         -2.6535    0.5091   -0.1875 C.3       1 <0>         0.0000
     10 C10        -0.7774   -1.7417    0.3648 C.3       1 <0>         0.0000
     11 C11         5.8921    2.7761    1.2279 C.3       1 <0>         0.0000
     12 C12         5.1386    1.6403    0.5141 C.3       1 <0>         0.0000
     13 C13         1.9688    1.5632    1.2310 C.3       1 <0>         0.0000
     14 N1          5.1934   -0.1784    2.1985 N.2       1 <0>         0.0000
     15 N2          0.8289    0.7566    0.8244 N.3       1 <0>         0.0000
     16 O1         -0.4740   -1.1212   -1.9707 O.3       1 <0>         0.0000
     17 S1          2.7563   -0.5000    2.9791 S.3       1 <0>         0.0000
     18 H1         -0.1260    2.5056    0.0381 H         1 <0>         0.0000
     19 H2         -0.9499    1.7377    1.4063 H         1 <0>         0.0000
     20 H3          1.7619   -0.9429   -0.0189 H         1 <0>         0.0000
     21 H4          1.4724    0.3723   -1.1886 H         1 <0>         0.0000
     22 H5         -1.0859    1.1162   -1.5078 H         1 <0>         0.0000
     23 H6          4.8132   -1.7433    4.9664 H         1 <0>         0.0000
     24 H7          4.5700   -2.9358    3.6840 H         1 <0>         0.0000
     25 H8          6.0946   -2.0240    3.7654 H         1 <0>         0.0000
     26 H9         -2.8063    0.0983    0.8160 H         1 <0>         0.0000
     27 H10        -3.1467   -0.1495   -0.9096 H         1 <0>         0.0000
     28 H11        -3.1563    1.4818   -0.2261 H         1 <0>         0.0000
     29 H12        -1.8060   -2.0600    0.1763 H         1 <0>         0.0000
     30 H13        -0.6936   -1.3895    1.3962 H         1 <0>         0.0000
     31 H14        -0.1243   -2.6177    0.2621 H         1 <0>         0.0000
     32 H15         5.1970    3.4201    1.7774 H         1 <0>         0.0000
     33 H16         6.4372    3.3963    0.5080 H         1 <0>         0.0000
     34 H17         6.6110    2.3670    1.9439 H         1 <0>         0.0000
     35 H18         5.8514    1.0354   -0.0570 H         1 <0>         0.0000
     36 H19         4.4264    2.0594   -0.2028 H         1 <0>         0.0000
     37 H20         1.6229    2.2586    2.0065 H         1 <0>         0.0000
     38 H21         2.3554    2.1837    0.4017 H         1 <0>         0.0000
     39 H22        -0.0727   -2.0036   -2.0185 H         1 <0>         0.0000
@<TRIPOS>BOND
     1    1    2 2
     2    1   12 1
     3    1   14 1
     4    2   13 1
     5    2   17 1
     6    3    8 1
     7    3   14 2
     8    3   17 1
     9    4    6 1
    10    4   15 1
    11    4   18 1
    12    4   19 1
    13    5    7 1
    14    5   15 1
    15    5   20 1
    16    5   21 1
    17    6    7 1
    18    6    9 1
    19    6   22 1
    20    7   10 1
    21    7   16 1
    22    8   23 1
    23    8   24 1
    24    8   25 1
    25    9   26 1
    26    9   27 1
    27    9   28 1
    28   10   29 1
    29   10   30 1
    30   10   31 1
    31   11   12 1
    32   11   32 1
    33   11   33 1
    34   11   34 1
    35   12   35 1
    36   12   36 1
    37   13   15 1
    38   13   37 1
    39   13   38 1
    40   16   39 1
