@<TRIPOS>MOLECULE
*****
   37    38     0     0     0
SMALL
NO_CHARGES

@<TRIPOS>ATOM
      1 C1          5.8861   -4.0645    0.5125 C.ar      1 <0>         0.0000
      2 C2          6.5287   -2.0198   -0.6047 C.ar      1 <0>         0.0000
      3 C3          4.8243   -4.2117   -0.3811 C.ar      1 <0>         0.0000
      4 C4          5.4677   -2.1681   -1.4927 C.ar      1 <0>         0.0000
      5 C5          6.7505   -2.9626    0.4143 C.ar      1 <0>         0.0000
      6 C6          4.5955   -3.2631   -1.3859 C.ar      1 <0>         0.0000
      7 C7          7.9047   -2.7591    1.3454 C.2       1 <0>         0.0000
      8 C8          0.3364   -1.3486    0.1579 C.3       1 <0>         0.0000
      9 C9          0.9030   -0.6338   -1.0767 C.3       1 <0>         0.0000
     10 C10         0.2216   -2.8613   -0.0775 C.3       1 <0>         0.0000
     11 C11         2.2437   -1.2434   -1.5112 C.3       1 <0>         0.0000
     12 C12         1.5639   -3.4630   -0.5193 C.3       1 <0>         0.0000
     13 C13         2.1111   -2.7523   -1.7671 C.3       1 <0>         0.0000
     14 C14         8.1569   -3.7910    2.4324 C.3       1 <0>         0.0000
     15 C15         3.4064   -3.4070   -2.3107 C.3       1 <0>         0.0000
     16 O1          8.6357   -1.7799    1.2376 O.2       1 <0>         0.0000
     17 O2          3.7727   -2.8435   -3.5781 O.3       1 <0>         0.0000
     18 H1          6.0374   -4.8179    1.2794 H         1 <0>         0.0000
     19 H2          7.2073   -1.1758   -0.6811 H         1 <0>         0.0000
     20 H3          4.1720   -5.0777   -0.2997 H         1 <0>         0.0000
     21 H4          5.3102   -1.4454   -2.2859 H         1 <0>         0.0000
     22 H5         -0.6415   -0.9312    0.4252 H         1 <0>         0.0000
     23 H6          1.0008   -1.1673    1.0140 H         1 <0>         0.0000
     24 H7          0.1822   -0.7105   -1.9030 H         1 <0>         0.0000
     25 H8          1.0293    0.4354   -0.8709 H         1 <0>         0.0000
     26 H9         -0.1304   -3.3621    0.8320 H         1 <0>         0.0000
     27 H10        -0.5335   -3.0516   -0.8528 H         1 <0>         0.0000
     28 H11         2.6206   -0.7416   -2.4088 H         1 <0>         0.0000
     29 H12         2.9869   -1.0773   -0.7217 H         1 <0>         0.0000
     30 H13         2.2883   -3.3656    0.2986 H         1 <0>         0.0000
     31 H14         1.4489   -4.5372   -0.7148 H         1 <0>         0.0000
     32 H15         1.3611   -2.8908   -2.5650 H         1 <0>         0.0000
     33 H16         8.3370   -4.7803    1.9981 H         1 <0>         0.0000
     34 H17         7.2915   -3.8781    3.0982 H         1 <0>         0.0000
     35 H18         9.0290   -3.4867    3.0121 H         1 <0>         0.0000
     36 H19         3.2011   -4.4812   -2.4363 H         1 <0>         0.0000
     37 H20         2.9846   -2.8569   -4.1440 H         1 <0>         0.0000
@<TRIPOS>BOND
     1    1    3 ar
     2    1    5 ar
     3    1   18 1
     4    2    4 ar
     5    2    5 ar
     6    2   19 1
     7    3    6 ar
     8    3   20 1
     9    4    6 ar
    10    4   21 1
    11    5    7 1
    12    6   15 1
    13    7   14 1
    14    7   16 2
    15    8   10 1
    16    8    9 1
    17    8   22 1
    18    8   23 1
    19    9   11 1
    20    9   24 1
    21    9   25 1
    22   10   12 1
    23   10   26 1
    24   10   27 1
    25   11   13 1
    26   11   28 1
    27   11   29 1
    28   12   13 1
    29   12   30 1
    30   12   31 1
    31   13   15 1
    32   13   32 1
    33   14   33 1
    34   14   34 1
    35   14   35 1
    36   15   17 1
    37   15   36 1
    38   17   37 1
