@<TRIPOS>MOLECULE
*****
   13    13     0     0     0
SMALL
NO_CHARGES

@<TRIPOS>ATOM
      1 C1         -0.8325   -0.9197    0.1974 C.2       1 <0>         0.0000
      2 C2         -1.3421   -1.1686    1.4409 C.2       1 <0>         0.0000
      3 C3         -0.5290   -3.1840    1.0916 C.2       1 <0>         0.0000
      4 C4         -0.2115   -4.6377    1.3122 C.3       1 <0>         0.0000
      5 N1         -1.1741   -2.4313    1.9420 N.2       1 <0>         0.0000
      6 N2         -1.1098   -5.4965    0.5198 N.3       1 <0>         0.0000
      7 S1         -0.0778   -2.3633   -0.3958 S.3       1 <0>         0.0000
      8 Br1        -2.2522    0.1347    2.4826 Br        1 <0>         0.0000
      9 H1         -0.8551   -0.0023   -0.3737 H         1 <0>         0.0000
     10 H2          0.8594   -4.8071    1.1151 H         1 <0>         0.0000
     11 H3         -0.3909   -4.8349    2.3716 H         1 <0>         0.0000
     12 H4         -0.9596   -6.4688    0.7844 H         1 <0>         0.0000
     13 H5         -0.8798   -5.4249   -0.4701 H         1 <0>         0.0000
@<TRIPOS>BOND
     1    1    2 2
     2    1    7 1
     3    1    9 1
     4    2    5 1
     5    2    8 1
     6    3    4 1
     7    3    5 2
     8    3    7 1
     9    4    6 1
    10    4   10 1
    11    4   11 1
    12    6   12 1
    13    6   13 1
