@<TRIPOS>MOLECULE
*****
   20    21     0     0     0
SMALL
NO_CHARGES

@<TRIPOS>ATOM
      1 C1          1.9114   -1.0510   -0.1212 C.ar      1 <0>         0.0000
      2 C2          1.8723   -1.0353    2.6822 C.ar      1 <0>         0.0000
      3 C3         -0.9035   -1.5070   -3.3290 C.2       1 <0>         0.0000
      4 C4         -1.8018   -0.5182   -3.6604 C.2       1 <0>         0.0000
      5 C5          0.8354   -0.4345    0.5439 C.ar      1 <0>         0.0000
      6 C6          2.9468   -1.6246    0.5960 C.ar      1 <0>         0.0000
      7 C7          0.8474   -0.4453    1.9489 C.ar      1 <0>         0.0000
      8 C8          2.9275   -1.6187    1.9923 C.ar      1 <0>         0.0000
      9 C9         -0.6761   -0.2428   -1.5298 C.2       1 <0>         0.0000
     10 C10        -0.2525    0.2712   -0.1978 C.2       1 <0>         0.0000
     11 N1         -0.2750   -1.3422   -2.1250 N.2       1 <0>         0.0000
     12 O1         -0.8108    1.2643    0.2569 O.2       1 <0>         0.0000
     13 F1          3.9857   -2.1982   -0.0456 F         1 <0>         0.0000
     14 F2         -0.1713    0.0910    2.6428 F         1 <0>         0.0000
     15 F3          3.9386   -2.1863    2.6703 F         1 <0>         0.0000
     16 S1         -1.8756    0.6746   -2.4215 S.3       1 <0>         0.0000
     17 H1          1.9446   -1.0854   -1.2025 H         1 <0>         0.0000
     18 H2          1.8478   -1.0392    3.7665 H         1 <0>         0.0000
     19 H3         -0.6758   -2.3745   -3.9388 H         1 <0>         0.0000
     20 H4         -2.4084   -0.4437   -4.5540 H         1 <0>         0.0000
@<TRIPOS>BOND
     1    1    5 ar
     2    1    6 ar
     3    1   17 1
     4    2    7 ar
     5    2    8 ar
     6    2   18 1
     7    3    4 2
     8    3   11 1
     9    3   19 1
    10    4   16 1
    11    4   20 1
    12    5    7 ar
    13    5   10 1
    14    6    8 ar
    15    6   13 1
    16    7   14 1
    17    8   15 1
    18    9   10 1
    19    9   11 2
    20    9   16 1
    21   10   12 2
