@<TRIPOS>MOLECULE
*****
   18    18     0     0     0
SMALL
NO_CHARGES

@<TRIPOS>ATOM
      1 C1          1.8706   -1.0635   -0.1075 C.ar      1 <0>         0.0000
      2 C2          2.9225   -1.6444    0.6104 C.ar      1 <0>         0.0000
      3 C3          0.7942   -0.4686    0.5609 C.ar      1 <0>         0.0000
      4 C4          2.9032   -1.6390    2.0065 C.ar      1 <0>         0.0000
      5 C5          0.7591   -0.4543    1.9566 C.ar      1 <0>         0.0000
      6 C6          1.8161   -1.0456    2.6548 C.ar      1 <0>         0.0000
      7 C7          0.8757   -2.6533    4.8154 C.3       1 <0>         0.0000
      8 O1          3.1385   -1.2154    4.9591 O.2       1 <0>         0.0000
      9 O2          0.8889    0.0301    4.9066 O.2       1 <0>         0.0000
     10 F1          1.5621   -3.6892    4.3096 F         1 <0>         0.0000
     11 F2          0.7672   -2.7951    6.1377 F         1 <0>         0.0000
     12 F3         -0.3482   -2.6320    4.2662 F         1 <0>         0.0000
     13 S1          1.7833   -1.0295    4.4403 S.o2      1 <0>         0.0000
     14 H1          1.8925   -1.0696   -1.1939 H         1 <0>         0.0000
     15 H2          3.7588   -2.0964    0.0849 H         1 <0>         0.0000
     16 H3         -0.0140   -0.0119   -0.0029 H         1 <0>         0.0000
     17 H4          3.7135   -2.0701    2.5857 H         1 <0>         0.0000
     18 H5         -0.0571    0.0134    2.4980 H         1 <0>         0.0000
@<TRIPOS>BOND
     1    1    3 ar
     2    1    2 ar
     3    1   14 1
     4    2    4 ar
     5    2   15 1
     6    3    5 ar
     7    3   16 1
     8    4    6 ar
     9    4   17 1
    10    5    6 ar
    11    5   18 1
    12    6   13 1
    13    7   10 1
    14    7   11 1
    15    7   12 1
    16    7   13 1
    17    8   13 2
    18    9   13 2
