@<TRIPOS>MOLECULE
*****
   25    25     0     0     0
SMALL
NO_CHARGES

@<TRIPOS>ATOM
      1 C1          2.1133   -0.8479    0.0062 C.ar      1 <0>         0.0000
      2 C2          1.0025   -0.2896    0.6392 C.ar      1 <0>         0.0000
      3 C3          1.9358   -0.9166    2.7717 C.ar      1 <0>         0.0000
      4 C4          3.0433   -1.4840    2.1209 C.ar      1 <0>         0.0000
      5 C5          3.1562   -1.4626    0.7138 C.ar      1 <0>         0.0000
      6 C6          0.9083   -0.3274    2.0340 C.ar      1 <0>         0.0000
      7 C7          4.0774   -2.1562    2.9802 C.2       1 <0>         0.0000
      8 C8          4.8302   -1.2068   -1.1942 C.3       1 <0>         0.0000
      9 C9          3.9576   -3.4957   -0.5254 C.3       1 <0>         0.0000
     10 C10         4.3289   -2.0835   -0.0339 C.3       1 <0>         0.0000
     11 O1          4.5671   -3.2408    2.7561 O.2       1 <0>         0.0000
     12 O2         -0.1557    0.1905    2.7301 O.3       1 <0>         0.0000
     13 O3          4.4471   -1.4640    4.1000 O.3       1 <0>         0.0000
     14 H1          2.1640   -0.8003   -1.0771 H         1 <0>         0.0000
     15 H2          0.2130    0.1712    0.0475 H         1 <0>         0.0000
     16 H3          1.8267   -0.9695    3.8517 H         1 <0>         0.0000
     17 H4          4.1052   -1.1474   -2.0131 H         1 <0>         0.0000
     18 H5          5.7487   -1.6342   -1.6098 H         1 <0>         0.0000
     19 H6          5.0501   -0.1869   -0.8617 H         1 <0>         0.0000
     20 H7          3.1180   -3.4550   -1.2293 H         1 <0>         0.0000
     21 H8          3.6766   -4.1338    0.3158 H         1 <0>         0.0000
     22 H9          4.8083   -3.9578   -1.0385 H         1 <0>         0.0000
     23 H10         5.1571   -2.1973    0.6682 H         1 <0>         0.0000
     24 H11        -0.8086    0.5401    2.1031 H         1 <0>         0.0000
     25 H12         4.0492   -0.5766    4.0764 H         1 <0>         0.0000
@<TRIPOS>BOND
     1    1    2 ar
     2    1    5 ar
     3    1   14 1
     4    2    6 ar
     5    2   15 1
     6    3    4 ar
     7    3    6 ar
     8    3   16 1
     9    4    5 ar
    10    4    7 1
    11    5   10 1
    12    6   12 1
    13    7   11 2
    14    7   13 1
    15    8   10 1
    16    8   17 1
    17    8   18 1
    18    8   19 1
    19    9   10 1
    20    9   20 1
    21    9   21 1
    22    9   22 1
    23   10   23 1
    24   12   24 1
    25   13   25 1
