@<TRIPOS>MOLECULE
*****
   28    29     0     0     0
SMALL
NO_CHARGES

@<TRIPOS>ATOM
      1 C1          2.5904   -4.4845   -0.9275 C.ar      1 <0>         0.0000
      2 C2          2.0343   -5.5437   -1.6533 C.ar      1 <0>         0.0000
      3 C3          0.3839   -3.7607   -0.2884 C.ar      1 <0>         0.0000
      4 C4          1.7727   -3.5762   -0.2426 C.ar      1 <0>         0.0000
      5 C5         -0.1919   -4.8117   -1.0026 C.ar      1 <0>         0.0000
      6 C6          0.6555   -5.6890   -1.6907 C.ar      1 <0>         0.0000
      7 C7         -2.4426   -7.8080    2.4776 C.3       1 <0>         0.0000
      8 C8         -1.2948   -6.8586    2.8303 C.3       1 <0>         0.0000
      9 C9         -2.2856   -6.0554    0.9651 C.3       1 <0>         0.0000
     10 C10         2.3633   -2.4139    0.5232 C.3       1 <0>         0.0000
     11 C11        -2.1621   -6.1055   -0.5510 C.3       1 <0>         0.0000
     12 O1         -3.1192   -7.1316    1.4059 O.3       1 <0>         0.0000
     13 O2         -1.0207   -6.2297    1.5762 O.3       1 <0>         0.0000
     14 O3         -1.5635   -4.9098   -1.0719 O.3       1 <0>         0.0000
     15 F1          0.1131   -6.7072   -2.4142 F         1 <0>         0.0000
     16 H1          3.6708   -4.3682   -0.9003 H         1 <0>         0.0000
     17 H2          2.6550   -6.2496   -2.1973 H         1 <0>         0.0000
     18 H3         -0.2842   -3.0880    0.2434 H         1 <0>         0.0000
     19 H4         -2.0738   -8.7774    2.1226 H         1 <0>         0.0000
     20 H5         -3.1443   -7.9633    3.3023 H         1 <0>         0.0000
     21 H6         -1.6025   -6.1123    3.5764 H         1 <0>         0.0000
     22 H7         -0.3859   -7.3604    3.1664 H         1 <0>         0.0000
     23 H8         -2.7331   -5.1013    1.2870 H         1 <0>         0.0000
     24 H9          2.2273   -1.4725   -0.0223 H         1 <0>         0.0000
     25 H10         1.8848   -2.2964    1.5009 H         1 <0>         0.0000
     26 H11         3.4360   -2.5495    0.6873 H         1 <0>         0.0000
     27 H12        -3.1655   -6.1465   -0.9794 H         1 <0>         0.0000
     28 H13        -1.6090   -7.0007   -0.8441 H         1 <0>         0.0000
@<TRIPOS>BOND
     1    1    2 ar
     2    1    4 ar
     3    1   16 1
     4    2    6 ar
     5    2   17 1
     6    3    4 ar
     7    3    5 ar
     8    3   18 1
     9    4   10 1
    10    5    6 ar
    11    5   14 1
    12    6   15 1
    13    7    8 1
    14    7   12 1
    15    7   19 1
    16    7   20 1
    17    8   13 1
    18    8   21 1
    19    8   22 1
    20    9   11 1
    21    9   13 1
    22    9   12 1
    23    9   23 1
    24   10   24 1
    25   10   25 1
    26   10   26 1
    27   11   14 1
    28   11   27 1
    29   11   28 1
