@<TRIPOS>MOLECULE
*****
   48    50     0     0     0
SMALL
NO_CHARGES

@<TRIPOS>ATOM
      1 C1         -1.4648   -1.2909   -7.0632 C.ar      1 <0>         0.0000
      2 C2         -0.3103   -0.8582   -7.7228 C.ar      1 <0>         0.0000
      3 C3         -1.9597   -0.5098   -6.0108 C.ar      1 <0>         0.0000
      4 C4          0.5399    4.4265   -1.4948 C.ar      1 <0>         0.0000
      5 C5          1.1346    2.1041   -1.6810 C.ar      1 <0>         0.0000
      6 C6          0.1716    4.4251   -2.8403 C.ar      1 <0>         0.0000
      7 C7          0.7626    2.1019   -3.0308 C.ar      1 <0>         0.0000
      8 C8          0.3304    0.3266   -7.3568 C.ar      1 <0>         0.0000
      9 C9         -1.3286    0.6709   -5.6256 C.ar      1 <0>         0.0000
     10 C10         1.0323    3.2559   -0.8871 C.ar      1 <0>         0.0000
     11 C11         0.2718    3.2676   -3.6263 C.ar      1 <0>         0.0000
     12 C12        -0.1675    1.1283   -6.2996 C.ar      1 <0>         0.0000
     13 C13         2.6650    5.6044    0.6615 C.2       1 <0>         0.0000
     14 C14         0.6836    3.3555    2.9884 C.3       1 <0>         0.0000
     15 C15         1.9512    4.1546    3.3279 C.3       1 <0>         0.0000
     16 C16         0.2704    3.5467    1.5212 C.3       1 <0>         0.0000
     17 C17         3.0978    3.7991    2.3700 C.3       1 <0>         0.0000
     18 C18         1.4422    3.2164    0.5719 C.3       1 <0>         0.0000
     19 C19         2.7125    4.0502    0.8962 C.3       1 <0>         0.0000
     20 C20         1.8148    2.5877   -6.3945 C.3       1 <0>         0.0000
     21 C21        -0.1599    3.3009   -5.0834 C.3       1 <0>         0.0000
     22 N1          0.4687    2.2994   -5.9355 N.pl3     1 <0>         0.0000
     23 O1          1.5399    6.1854    0.7643 O.co2     1 <0>         0.0000
     24 O2          3.7907    6.1230    0.4453 O.co2     1 <0>         0.0000
     25 H1         -1.9594   -2.2143   -7.3522 H         1 <0>         0.0000
     26 H2          0.0995   -1.4450   -8.5426 H         1 <0>         0.0000
     27 H3         -2.8427   -0.8332   -5.4636 H         1 <0>         0.0000
     28 H4          0.5007    5.3363   -0.9009 H         1 <0>         0.0000
     29 H5          1.5195    1.1878   -1.2355 H         1 <0>         0.0000
     30 H6         -0.1861    5.3501   -3.2932 H         1 <0>         0.0000
     31 H7          0.8644    1.1950   -3.6220 H         1 <0>         0.0000
     32 H8          1.2113    0.6403   -7.9062 H         1 <0>         0.0000
     33 H9         -1.7113    1.2185   -4.7715 H         1 <0>         0.0000
     34 H10         0.8709    2.2862    3.1782 H         1 <0>         0.0000
     35 H11        -0.1425    3.6504    3.6502 H         1 <0>         0.0000
     36 H12         1.7356    5.2246    3.2383 H         1 <0>         0.0000
     37 H13         2.2506    3.9610    4.3680 H         1 <0>         0.0000
     38 H14        -0.5861    2.9002    1.2832 H         1 <0>         0.0000
     39 H15        -0.0213    4.5863    1.3581 H         1 <0>         0.0000
     40 H16         3.9919    4.3876    2.6014 H         1 <0>         0.0000
     41 H17         3.3607    2.7366    2.5078 H         1 <0>         0.0000
     42 H18         1.7201    2.1693    0.7772 H         1 <0>         0.0000
     43 H19         3.5275    3.6767    0.2657 H         1 <0>         0.0000
     44 H20         2.2445    3.3621   -5.7560 H         1 <0>         0.0000
     45 H21         1.8412    2.9410   -7.4377 H         1 <0>         0.0000
     46 H22         2.4570    1.7036   -6.3133 H         1 <0>         0.0000
     47 H23        -1.2458    3.1932   -5.1682 H         1 <0>         0.0000
     48 H24         0.0671    4.2912   -5.4994 H         1 <0>         0.0000
@<TRIPOS>BOND
     1    1    3 ar
     2    1    2 ar
     3    1   25 1
     4    2    8 ar
     5    2   26 1
     6    3    9 ar
     7    3   27 1
     8    4    6 ar
     9    4   10 ar
    10    4   28 1
    11    5    7 ar
    12    5   10 ar
    13    5   29 1
    14    6   11 ar
    15    6   30 1
    16    7   11 ar
    17    7   31 1
    18    8   12 ar
    19    8   32 1
    20    9   12 ar
    21    9   33 1
    22   10   18 1
    23   11   21 1
    24   12   22 1
    25   13   19 1
    26   13   23 1
    27   13   24 2
    28   14   15 1
    29   14   16 1
    30   14   34 1
    31   14   35 1
    32   15   17 1
    33   15   36 1
    34   15   37 1
    35   16   18 1
    36   16   38 1
    37   16   39 1
    38   17   19 1
    39   17   40 1
    40   17   41 1
    41   18   19 1
    42   18   42 1
    43   19   43 1
    44   20   22 1
    45   20   44 1
    46   20   45 1
    47   20   46 1
    48   21   22 1
    49   21   47 1
    50   21   48 1
