@<TRIPOS>MOLECULE
*****
   48    51     0     0     0
SMALL
NO_CHARGES

@<TRIPOS>ATOM
      1 C1          5.1128   -2.8240    0.5012 C.ar      1 <0>         0.0000
      2 C2          6.5046   -1.8058    2.1946 C.ar      1 <0>         0.0000
      3 C3          3.8282   -2.1780    3.8250 C.ar      1 <0>         0.0000
      4 C4          2.9738   -1.0782    1.8496 C.ar      1 <0>         0.0000
      5 C5          6.2422   -3.1168   -0.2602 C.ar      1 <0>         0.0000
      6 C6          7.6407   -2.0680    1.4251 C.ar      1 <0>         0.0000
      7 C7          2.6315   -1.9135    4.4955 C.ar      1 <0>         0.0000
      8 C8          1.7879   -0.7832    2.5187 C.ar      1 <0>         0.0000
      9 C9          5.7252   -1.5072   -3.2476 C.ar      1 <0>         0.0000
     10 C10         6.4120    0.0313   -1.4996 C.ar      1 <0>         0.0000
     11 C11        -0.6686   -2.2845    0.6503 C.ar      1 <0>         0.0000
     12 C12         0.5451   -3.8923    2.0054 C.ar      1 <0>         0.0000
     13 C13         4.3889   -1.1674   -3.0323 C.ar      1 <0>         0.0000
     14 C14         5.0751    0.3677   -1.2776 C.ar      1 <0>         0.0000
     15 C15         0.1245   -2.6041   -0.4527 C.ar      1 <0>         0.0000
     16 C16         1.3445   -4.2086    0.9051 C.ar      1 <0>         0.0000
     17 C17         5.2259   -2.1503    1.7282 C.ar      1 <0>         0.0000
     18 C18         4.0015   -1.7934    2.4858 C.ar      1 <0>         0.0000
     19 C19         7.4931   -2.6999    0.1911 C.ar      1 <0>         0.0000
     20 C20         1.6125   -1.2392    3.8240 C.ar      1 <0>         0.0000
     21 C21         6.7255   -0.9221   -2.4689 C.ar      1 <0>         0.0000
     22 C22        -0.4418   -2.9145    1.8754 C.ar      1 <0>         0.0000
     23 C23         4.0746   -0.2400   -2.0383 C.ar      1 <0>         0.0000
     24 C24         1.1343   -3.5564   -0.3113 C.ar      1 <0>         0.0000
     25 O1          8.6030   -2.8970   -0.6514 O.3       1 <0>         0.0000
     26 O2          0.3614   -1.0367    4.4360 O.3       1 <0>         0.0000
     27 O3          8.0274   -1.3744   -2.7300 O.3       1 <0>         0.0000
     28 O4         -1.2578   -2.4805    2.9307 O.3       1 <0>         0.0000
     29 S1          9.1192   -1.5076   -1.4541 S.3       1 <0>         0.0000
     30 S2         -0.6156   -2.4097    4.4865 S.3       1 <0>         0.0000
     31 Cl1         2.3887    0.1604   -1.7319 Cl        1 <0>         0.0000
     32 Cl2         2.1663   -3.9324   -1.6861 Cl        1 <0>         0.0000
     33 H1          4.1336   -3.1084    0.1312 H         1 <0>         0.0000
     34 H2          6.6070   -1.2872    3.1444 H         1 <0>         0.0000
     35 H3          4.6169   -2.7289    4.3307 H         1 <0>         0.0000
     36 H4          3.0955   -0.7627    0.8190 H         1 <0>         0.0000
     37 H5          6.1583   -3.6199   -1.2175 H         1 <0>         0.0000
     38 H6          8.6273   -1.7595    1.7590 H         1 <0>         0.0000
     39 H7          2.4738   -2.2519    5.5156 H         1 <0>         0.0000
     40 H8          0.9840   -0.2477    2.0255 H         1 <0>         0.0000
     41 H9          6.0000   -2.2467   -3.9935 H         1 <0>         0.0000
     42 H10         7.1919    0.4734   -0.8895 H         1 <0>         0.0000
     43 H11        -1.4432   -1.5270    0.5802 H         1 <0>         0.0000
     44 H12         0.7247   -4.3695    2.9624 H         1 <0>         0.0000
     45 H13         3.6011   -1.6338   -3.6142 H         1 <0>         0.0000
     46 H14         4.8162    1.0912   -0.5112 H         1 <0>         0.0000
     47 H15        -0.0260   -2.1032   -1.4031 H         1 <0>         0.0000
     48 H16         2.1303   -4.9511    0.9990 H         1 <0>         0.0000
@<TRIPOS>BOND
     1    1    5 ar
     2    1   17 ar
     3    1   33 1
     4    2    6 ar
     5    2   17 ar
     6    2   34 1
     7    3    7 ar
     8    3   18 ar
     9    3   35 1
    10    4    8 ar
    11    4   18 ar
    12    4   36 1
    13    5   19 ar
    14    5   37 1
    15    6   19 ar
    16    6   38 1
    17    7   20 ar
    18    7   39 1
    19    8   20 ar
    20    8   40 1
    21    9   13 ar
    22    9   21 ar
    23    9   41 1
    24   10   14 ar
    25   10   21 ar
    26   10   42 1
    27   11   15 ar
    28   11   22 ar
    29   11   43 1
    30   12   16 ar
    31   12   22 ar
    32   12   44 1
    33   13   23 ar
    34   13   45 1
    35   14   23 ar
    36   14   46 1
    37   15   24 ar
    38   15   47 1
    39   16   24 ar
    40   16   48 1
    41   17   18 1
    42   19   25 1
    43   20   26 1
    44   21   27 1
    45   22   28 1
    46   23   31 1
    47   24   32 1
    48   25   29 1
    49   26   30 1
    50   27   29 1
    51   28   30 1
