@<TRIPOS>MOLECULE
*****
    4     3     0     0     0
SMALL
NO_CHARGES

@<TRIPOS>ATOM
      1 P1         -0.6389    0.3940    0.1057 P.3       1 <0>         0.0000
      2 Br1         0.3375    0.5748   -1.9386 Br        1 <0>         0.0000
      3 Br2        -0.7925   -1.8609    0.3462 Br        1 <0>         0.0000
      4 Br3         1.0960    0.8875    1.4883 Br        1 <0>         0.0000
@<TRIPOS>BOND
     1    1    2 1
     2    1    3 1
     3    1    4 1
