@<TRIPOS>MOLECULE
*****
   40    42     0     0     0
SMALL
NO_CHARGES

@<TRIPOS>ATOM
      1 C1         -1.4108    5.9159    0.3847 C.ar      1 <0>         0.0000
      2 C2          0.3288    6.3899    1.9739 C.ar      1 <0>         0.0000
      3 C3         -0.6825    4.8283   -0.0951 C.ar      1 <0>         0.0000
      4 C4          1.0601    5.2956    1.4955 C.ar      1 <0>         0.0000
      5 C5         -0.9170    6.7194    1.4270 C.ar      1 <0>         0.0000
      6 C6          0.5678    4.5054    0.4535 C.ar      1 <0>         0.0000
      7 C7          0.7858    1.2139   -1.2223 C.2       1 <0>         0.0000
      8 C8         -0.0432   -1.1191   -1.6591 C.3       1 <0>         0.0000
      9 C9         -0.0201   -2.3765   -0.7872 C.3       1 <0>         0.0000
     10 C10         0.0604    1.4476    0.9959 C.3       1 <0>         0.0000
     11 C11        -0.5055   -1.0983    1.2153 C.3       1 <0>         0.0000
     12 C12        -0.5644    0.1820    0.3919 C.3       1 <0>         0.0000
     13 C13        -1.7038    7.9112    1.9226 C.3       1 <0>         0.0000
     14 C14        -0.9802   -3.4648    1.1452 C.3       1 <0>         0.0000
     15 C15         1.3614    3.3314   -0.0833 C.3       1 <0>         0.0000
     16 N1          0.2409    0.0151   -0.8089 N.am      1 <0>         0.0000
     17 N2          0.5511    2.1326   -0.1985 N.am      1 <0>         0.0000
     18 N3         -0.9083   -2.2293    0.3735 N.3       1 <0>         0.0000
     19 O1          1.3684    1.4322   -2.2802 O.2       1 <0>         0.0000
     20 H1         -2.3792    6.1481   -0.0549 H         1 <0>         0.0000
     21 H2          0.7325    6.9887    2.7877 H         1 <0>         0.0000
     22 H3         -1.0829    4.2129   -0.8971 H         1 <0>         0.0000
     23 H4          2.0223    5.0561    1.9442 H         1 <0>         0.0000
     24 H5          0.7149   -1.1673   -2.4436 H         1 <0>         0.0000
     25 H6         -1.0310   -1.0150   -2.1330 H         1 <0>         0.0000
     26 H7         -0.3627   -3.2335   -1.3761 H         1 <0>         0.0000
     27 H8          1.0218   -2.5766   -0.4719 H         1 <0>         0.0000
     28 H9         -0.6624    2.0619    1.5382 H         1 <0>         0.0000
     29 H10         0.8915    1.1970    1.6754 H         1 <0>         0.0000
     30 H11         0.5198   -1.2286    1.6128 H         1 <0>         0.0000
     31 H12        -1.1925   -1.0314    2.0661 H         1 <0>         0.0000
     32 H13        -1.6140    0.3724    0.1160 H         1 <0>         0.0000
     33 H14        -2.7629    7.6649    2.0521 H         1 <0>         0.0000
     34 H15        -1.3214    8.2723    2.8815 H         1 <0>         0.0000
     35 H16        -1.6483    8.7426    1.2096 H         1 <0>         0.0000
     36 H17        -1.6879   -3.3432    1.9715 H         1 <0>         0.0000
     37 H18        -0.0041   -3.7675    1.5692 H         1 <0>         0.0000
     38 H19        -1.3412   -4.2778    0.5075 H         1 <0>         0.0000
     39 H20         1.7395    3.5425   -1.0881 H         1 <0>         0.0000
     40 H21         2.2341    3.1490    0.5631 H         1 <0>         0.0000
@<TRIPOS>BOND
     1    1    3 ar
     2    1    5 ar
     3    1   20 1
     4    2    4 ar
     5    2    5 ar
     6    2   21 1
     7    3    6 ar
     8    3   22 1
     9    4    6 ar
    10    4   23 1
    11    5   13 1
    12    6   15 1
    13    7   16 am
    14    7   17 am
    15    7   19 2
    16    8    9 1
    17    8   16 1
    18    8   24 1
    19    8   25 1
    20    9   18 1
    21    9   26 1
    22    9   27 1
    23   10   12 1
    24   10   17 1
    25   10   28 1
    26   10   29 1
    27   11   12 1
    28   11   18 1
    29   11   30 1
    30   11   31 1
    31   12   16 1
    32   12   32 1
    33   13   33 1
    34   13   34 1
    35   13   35 1
    36   14   18 1
    37   14   36 1
    38   14   37 1
    39   14   38 1
    40   15   17 1
    41   15   39 1
    42   15   40 1
