@<TRIPOS>MOLECULE
*****
   19    19     0     0     0
SMALL
NO_CHARGES

@<TRIPOS>ATOM
      1 C1          1.8698   -1.1096   -0.1739 C.ar      1 <0>         0.0000
      2 C2          0.6701   -0.8544    0.4929 C.ar      1 <0>         0.0000
      3 C3          3.0108   -1.2792    1.9737 C.ar      1 <0>         0.0000
      4 C4          1.8079   -1.0328    2.6550 C.ar      1 <0>         0.0000
      5 C5          3.0175   -1.3177    0.5865 C.ar      1 <0>         0.0000
      6 C6          0.6614   -0.8231    1.8832 C.ar      1 <0>         0.0000
      7 C7          1.7560   -1.0452    4.1451 C.2       1 <0>         0.0000
      8 C8          0.8231   -2.0096    4.8311 C.3       1 <0>         0.0000
      9 N1          2.4918   -0.3186    4.9096 N.2       1 <0>         0.0000
     10 O1          3.3369    0.5558    4.1948 O.3       1 <0>         0.0000
     11 F1          4.1893   -1.5658   -0.0543 F         1 <0>         0.0000
     12 F2         -0.5178   -0.5574    2.5077 F         1 <0>         0.0000
     13 H1          1.9211   -1.1447   -1.2573 H         1 <0>         0.0000
     14 H2         -0.2528   -0.6768   -0.0501 H         1 <0>         0.0000
     15 H3          3.9325   -1.4343    2.5228 H         1 <0>         0.0000
     16 H4          1.0474   -3.0367    4.5216 H         1 <0>         0.0000
     17 H5          0.9347   -1.9284    5.9140 H         1 <0>         0.0000
     18 H6         -0.2159   -1.8039    4.5596 H         1 <0>         0.0000
     19 H7          3.7844    1.0351    4.9110 H         1 <0>         0.0000
@<TRIPOS>BOND
     1    1    2 ar
     2    1    5 ar
     3    1   13 1
     4    2    6 ar
     5    2   14 1
     6    3    4 ar
     7    3    5 ar
     8    3   15 1
     9    4    6 ar
    10    4    7 1
    11    5   11 1
    12    6   12 1
    13    7    8 1
    14    7    9 2
    15    8   16 1
    16    8   17 1
    17    8   18 1
    18    9   10 1
    19   10   19 1
