@<TRIPOS>MOLECULE
*****
   34    36     0     0     0
SMALL
NO_CHARGES

@<TRIPOS>ATOM
      1 C1          4.2204    4.4384   -3.5265 C.ar      1 <0>         0.0000
      2 C2          3.0237    4.6248   -2.8654 C.ar      1 <0>         0.0000
      3 C3          1.9906    5.9774    0.4908 C.ar      1 <0>         0.0000
      4 C4         -1.5210    7.1313    0.3670 C.ar      1 <0>         0.0000
      5 C5          0.1399    8.0227   -1.1755 C.ar      1 <0>         0.0000
      6 C6          3.2503    6.2728    1.0447 C.ar      1 <0>         0.0000
      7 C7         -1.7254    8.4059    0.8911 C.ar      1 <0>         0.0000
      8 C8         -0.0790    9.3016   -0.6744 C.ar      1 <0>         0.0000
      9 C9          5.4314    4.8253   -2.8982 C.ar      1 <0>         0.0000
     10 C10         3.0336    5.1937   -1.5651 C.ar      1 <0>         0.0000
     11 C11         4.3044    5.5308   -1.0248 C.ar      1 <0>         0.0000
     12 C12        -0.5612    6.9305   -0.6355 C.ar      1 <0>         0.0000
     13 C13         1.8571    5.4667   -0.7971 C.ar      1 <0>         0.0000
     14 C14         4.3994    6.0763    0.2957 C.ar      1 <0>         0.0000
     15 C15        -0.9925    9.4758    0.3706 C.ar      1 <0>         0.0000
     16 N1          5.4798    5.3521   -1.6873 N.ar      1 <0>         0.0000
     17 N2         -0.4624    5.6263   -1.2145 N.2       1 <0>         0.0000
     18 N3          0.6310    5.0264   -1.3660 N.2       1 <0>         0.0000
     19 O1         -0.7734   12.1070    0.0836 O.2       1 <0>         0.0000
     20 O2         -2.5577   11.1655    1.6584 O.2       1 <0>         0.0000
     21 O3          5.6203    6.3714    0.7868 O.3       1 <0>         0.0000
     22 O4         -0.1516   11.1233    2.2877 O.3       1 <0>         0.0000
     23 S1         -1.2426   11.1071    1.0436 S.o2      1 <0>         0.0000
     24 H1          4.2495    3.9985   -4.5189 H         1 <0>         0.0000
     25 H2          2.0776    4.3371   -3.3125 H         1 <0>         0.0000
     26 H3          1.1098    6.1326    1.1032 H         1 <0>         0.0000
     27 H4         -2.0933    6.2830    0.7305 H         1 <0>         0.0000
     28 H5          0.8472    7.8657   -1.9836 H         1 <0>         0.0000
     29 H6          3.3325    6.6563    2.0568 H         1 <0>         0.0000
     30 H7         -2.4559    8.5775    1.6751 H         1 <0>         0.0000
     31 H8          0.4402   10.1587   -1.0918 H         1 <0>         0.0000
     32 H9          6.3820    4.6906   -3.4116 H         1 <0>         0.0000
     33 H10         6.2556    6.1311    0.0758 H         1 <0>         0.0000
     34 H11         0.5643   11.7397    2.0398 H         1 <0>         0.0000
@<TRIPOS>BOND
     1    1    2 ar
     2    1    9 ar
     3    1   24 1
     4    2   10 ar
     5    2   25 1
     6    3    6 ar
     7    3   13 ar
     8    3   26 1
     9    4    7 ar
    10    4   12 ar
    11    4   27 1
    12    5    8 ar
    13    5   12 ar
    14    5   28 1
    15    6   14 ar
    16    6   29 1
    17    7   15 ar
    18    7   30 1
    19    8   15 ar
    20    8   31 1
    21    9   16 ar
    22    9   32 1
    23   10   11 ar
    24   10   13 ar
    25   11   14 ar
    26   11   16 ar
    27   12   17 1
    28   13   18 1
    29   14   21 1
    30   15   23 1
    31   17   18 2
    32   19   23 2
    33   20   23 2
    34   21   33 1
    35   22   23 1
    36   22   34 1
