@<TRIPOS>MOLECULE
*****
   32    34     0     0     0
SMALL
NO_CHARGES

@<TRIPOS>ATOM
      1 C1          6.8443   -3.0453    4.9028 C.1       1 <0>         0.0000
      2 C2          8.4057    3.4342    4.8263 C.ar      1 <0>         0.0000
      3 C3          8.6070    4.4453    3.8830 C.ar      1 <0>         0.0000
      4 C4          5.6617   -7.5203    2.4024 C.2       1 <0>         0.0000
      5 C5          8.0779    2.1516    4.3943 C.ar      1 <0>         0.0000
      6 C6          8.4778    4.1598    2.5218 C.ar      1 <0>         0.0000
      7 C7          5.9512   -6.2289    1.9019 C.2       1 <0>         0.0000
      8 C8          5.7093   -7.5635    3.7794 C.2       1 <0>         0.0000
      9 C9          7.9468    1.8596    3.0230 C.ar      1 <0>         0.0000
     10 C10         8.1489    2.8779    2.0585 C.ar      1 <0>         0.0000
     11 C11         6.2183   -5.2936    2.8988 C.2       1 <0>         0.0000
     12 C12         7.5974    0.4723    2.6766 C.2       1 <0>         0.0000
     13 C13         7.1198   -1.5613    2.9717 C.2       1 <0>         0.0000
     14 C14         6.5361   -3.9256    2.6268 C.2       1 <0>         0.0000
     15 C15         6.8205   -2.8938    3.4798 C.2       1 <0>         0.0000
     16 C16         8.0274    2.6470    0.5723 C.3       1 <0>         0.0000
     17 N1          6.8566   -3.1971    6.0584 N.1       1 <0>         0.0000
     18 N2          7.4070   -0.4918    3.6579 N.2       1 <0>         0.0000
     19 N3          7.4340    0.0129    1.4476 N.2       1 <0>         0.0000
     20 O1          7.1131   -1.3516    1.6373 O.3       1 <0>         0.0000
     21 S1          6.1051   -6.0417    4.4829 S.3       1 <0>         0.0000
     22 H1          8.5028    3.6417    5.8884 H         1 <0>         0.0000
     23 H2          8.8634    5.4521    4.2028 H         1 <0>         0.0000
     24 H3          5.4287   -8.3802    1.7840 H         1 <0>         0.0000
     25 H4          7.9178    1.3540    5.1112 H         1 <0>         0.0000
     26 H5          8.6360    4.9520    1.7941 H         1 <0>         0.0000
     27 H6          5.9687   -5.9714    0.8474 H         1 <0>         0.0000
     28 H7          5.5310   -8.4173    4.4218 H         1 <0>         0.0000
     29 H8          6.5506   -3.6789    1.5675 H         1 <0>         0.0000
     30 H9          8.7272    1.8806    0.2264 H         1 <0>         0.0000
     31 H10         7.0295    2.2898    0.3016 H         1 <0>         0.0000
     32 H11         8.2266    3.5736    0.0275 H         1 <0>         0.0000
@<TRIPOS>BOND
     1    1   15 1
     2    1   17 3
     3    2    3 ar
     4    2    5 ar
     5    2   22 1
     6    3    6 ar
     7    3   23 1
     8    4    7 1
     9    4    8 2
    10    4   24 1
    11    5    9 ar
    12    5   25 1
    13    6   10 ar
    14    6   26 1
    15    7   11 2
    16    7   27 1
    17    8   21 1
    18    8   28 1
    19    9   10 ar
    20    9   12 1
    21   10   16 1
    22   11   14 1
    23   11   21 1
    24   12   18 1
    25   12   19 2
    26   13   15 1
    27   13   18 2
    28   13   20 1
    29   14   15 2
    30   14   29 1
    31   16   30 1
    32   16   31 1
    33   16   32 1
    34   19   20 1
