@<TRIPOS>MOLECULE
*****
   21    21     0     0     0
SMALL
NO_CHARGES

@<TRIPOS>ATOM
      1 C1          1.9920   -0.8960   -0.1379 C.ar      1 <0>         0.0000
      2 C2          2.9288   -1.6119    0.6151 C.ar      1 <0>         0.0000
      3 C3          0.9800   -0.1785    0.5088 C.ar      1 <0>         0.0000
      4 C4          2.8576   -1.6055    2.0099 C.ar      1 <0>         0.0000
      5 C5          0.9086   -0.1719    1.9035 C.ar      1 <0>         0.0000
      6 C6          1.8530   -0.8773    2.6627 C.ar      1 <0>         0.0000
      7 C7          0.7159   -2.1360    6.5074 C.3       1 <0>         0.0000
      8 C8          1.7580   -0.8953    4.1599 C.3       1 <0>         0.0000
      9 O1         -0.6776   -2.0339    4.2437 O.2       1 <0>         0.0000
     10 O2          1.3812   -3.5514    4.3556 O.2       1 <0>         0.0000
     11 S1          0.6962   -2.2957    4.7037 S.o2      1 <0>         0.0000
     12 H1          2.0477   -0.9008   -1.2233 H         1 <0>         0.0000
     13 H2          3.7109   -2.1782    0.1167 H         1 <0>         0.0000
     14 H3          0.2446    0.3713   -0.0725 H         1 <0>         0.0000
     15 H4          3.5732   -2.1776    2.5944 H         1 <0>         0.0000
     16 H5          0.1109    0.3691    2.4055 H         1 <0>         0.0000
     17 H6          0.0990   -2.9527    6.8872 H         1 <0>         0.0000
     18 H7          1.7410   -2.2390    6.8668 H         1 <0>         0.0000
     19 H8          0.2836   -1.1743    6.7883 H         1 <0>         0.0000
     20 H9          1.2890    0.0079    4.5582 H         1 <0>         0.0000
     21 H10         2.7285   -1.0531    4.6368 H         1 <0>         0.0000
@<TRIPOS>BOND
     1    1    3 ar
     2    1    2 ar
     3    1   12 1
     4    2    4 ar
     5    2   13 1
     6    3    5 ar
     7    3   14 1
     8    4    6 ar
     9    4   15 1
    10    5    6 ar
    11    5   16 1
    12    6    8 1
    13    7   11 1
    14    7   17 1
    15    7   18 1
    16    7   19 1
    17    8   11 1
    18    8   20 1
    19    8   21 1
    20    9   11 2
    21   10   11 2
