@<TRIPOS>MOLECULE
*****
   39    39     0     0     0
SMALL
NO_CHARGES

@<TRIPOS>ATOM
      1 C1         -0.5955   -0.4681    0.4225 C.3       1 <0>         0.0000
      2 C2         -1.0591   -1.7920    1.0431 C.3       1 <0>         0.0000
      3 C3          0.1999    0.2007    1.5471 C.3       1 <0>         0.0000
      4 C4          0.1646   -2.2892    1.8133 C.3       1 <0>         0.0000
      5 C5         -0.0743   -3.2781    2.9480 C.3       1 <0>         0.0000
      6 C6          1.2180   -3.6653    3.6782 C.3       1 <0>         0.0000
      7 C7          1.9820   -7.3898    6.5883 C.3       1 <0>         0.0000
      8 C8          1.9005   -8.3593    7.7750 C.3       1 <0>         0.0000
      9 C9          0.9929   -4.6842    4.7978 C.3       1 <0>         0.0000
     10 C10         2.2609   -5.9688    7.0739 C.3       1 <0>         0.0000
     11 C11         1.5368   -9.7643    7.3367 C.3       1 <0>         0.0000
     12 N1          0.7903   -0.9722    2.3456 N.4       1 <0>         0.0000
     13 O1          2.7965   -3.4667    6.3004 O.2       1 <0>         0.0000
     14 O2          3.5601   -5.3878    4.7968 O.2       1 <0>         0.0000
     15 F1          1.4743  -10.6056    8.3903 F         1 <0>         0.0000
     16 F2          0.3241   -9.7936    6.7202 F         1 <0>         0.0000
     17 F3          2.4393  -10.2688    6.4606 F         1 <0>         0.0000
     18 S1          2.5720   -4.8031    5.7180 S.o2      1 <0>         0.0000
     19 H1          0.0449   -0.6509   -0.4453 H         1 <0>         0.0000
     20 H2         -1.4228    0.1663    0.0997 H         1 <0>         0.0000
     21 H3         -1.9010   -1.6332    1.7263 H         1 <0>         0.0000
     22 H4         -1.3681   -2.5249    0.2955 H         1 <0>         0.0000
     23 H5          1.0132    0.8461    1.2164 H         1 <0>         0.0000
     24 H6         -0.4420    0.7570    2.2308 H         1 <0>         0.0000
     25 H7          0.9079   -2.6844    1.1151 H         1 <0>         0.0000
     26 H8         -0.8085   -2.8587    3.6489 H         1 <0>         0.0000
     27 H9         -0.5436   -4.1629    2.5045 H         1 <0>         0.0000
     28 H10         1.6798   -2.7792    4.1306 H         1 <0>         0.0000
     29 H11         1.9427   -4.0764    2.9679 H         1 <0>         0.0000
     30 H12         2.7759   -7.7028    5.9058 H         1 <0>         0.0000
     31 H13         1.0379   -7.4229    6.0359 H         1 <0>         0.0000
     32 H14         2.8586   -8.4193    8.2989 H         1 <0>         0.0000
     33 H15         1.1430   -8.0438    8.4985 H         1 <0>         0.0000
     34 H16         0.2287   -4.3554    5.5080 H         1 <0>         0.0000
     35 H17         0.7423   -5.6725    4.4060 H         1 <0>         0.0000
     36 H18         1.4478   -5.5430    7.6692 H         1 <0>         0.0000
     37 H19         3.1826   -5.9064    7.6622 H         1 <0>         0.0000
     38 H20         1.8112   -1.0021    2.2713 H         1 <0>         0.0000
     39 H21         0.5857   -0.8644    3.3439 H         1 <0>         0.0000
@<TRIPOS>BOND
     1    1    2 1
     2    1    3 1
     3    1   19 1
     4    1   20 1
     5    2    4 1
     6    2   21 1
     7    2   22 1
     8    3   12 1
     9    3   23 1
    10    3   24 1
    11    4    5 1
    12    4   12 1
    13    4   25 1
    14    5    6 1
    15    5   26 1
    16    5   27 1
    17    6    9 1
    18    6   28 1
    19    6   29 1
    20    7    8 1
    21    7   10 1
    22    7   30 1
    23    7   31 1
    24    8   11 1
    25    8   32 1
    26    8   33 1
    27    9   18 1
    28    9   34 1
    29    9   35 1
    30   10   18 1
    31   10   36 1
    32   10   37 1
    33   11   15 1
    34   11   16 1
    35   11   17 1
    36   12   38 1
    37   12   39 1
    38   13   18 2
    39   14   18 2
