@<TRIPOS>MOLECULE
*****
   18    17     0     0     0
SMALL
NO_CHARGES

@<TRIPOS>ATOM
      1 C1         -0.2076    0.0014    0.1627 C.2       1 <0>         0.0000
      2 C2          0.7061   -0.3590   -0.7425 C.2       1 <0>         0.0000
      3 C3          0.7518   -2.6847   -0.1833 C.3       1 <0>         0.0000
      4 C4          2.3777   -1.0748    0.8153 C.3       1 <0>         0.0000
      5 C5          2.5346   -1.6698   -1.5987 C.3       1 <0>         0.0000
      6 N1          1.5935   -1.4473   -0.4287 N.4       1 <0>         0.0000
      7 H1         -0.8899    0.8185   -0.0459 H         1 <0>         0.0000
      8 H2         -0.2977   -0.5007    1.1203 H         1 <0>         0.0000
      9 H3          0.7906    0.1471   -1.6966 H         1 <0>         0.0000
     10 H4          1.4288   -3.5073    0.0542 H         1 <0>         0.0000
     11 H5          0.0825   -2.4732    0.6527 H         1 <0>         0.0000
     12 H6          0.1879   -2.8914   -1.0950 H         1 <0>         0.0000
     13 H7          3.0485   -1.9039    1.0478 H         1 <0>         0.0000
     14 H8          2.9394   -0.1648    0.5961 H         1 <0>         0.0000
     15 H9          1.6630   -0.9098    1.6238 H         1 <0>         0.0000
     16 H10         3.1978   -2.4975   -1.3411 H         1 <0>         0.0000
     17 H11         1.9283   -1.9103   -2.4741 H         1 <0>         0.0000
     18 H12         3.0990   -0.7482   -1.7534 H         1 <0>         0.0000
@<TRIPOS>BOND
     1    1    2 2
     2    1    7 1
     3    1    8 1
     4    2    6 1
     5    2    9 1
     6    3    6 1
     7    3   10 1
     8    3   11 1
     9    3   12 1
    10    4    6 1
    11    4   13 1
    12    4   14 1
    13    4   15 1
    14    5    6 1
    15    5   16 1
    16    5   17 1
    17    5   18 1
