@<TRIPOS>MOLECULE
*****
   27    28     0     0     0
SMALL
NO_CHARGES

@<TRIPOS>ATOM
      1 C1         -0.0009   -0.8796    0.2717 C.ar      1 <0>         0.0000
      2 C2         -0.2314   -1.9926    1.0802 C.ar      1 <0>         0.0000
      3 C3          0.8067    0.1608    0.7310 C.ar      1 <0>         0.0000
      4 C4          0.3457   -2.0653    2.3480 C.ar      1 <0>         0.0000
      5 C5          1.3838    0.0882    1.9988 C.ar      1 <0>         0.0000
      6 C6          0.9335   -0.3257    8.3578 C.2       1 <0>         0.0000
      7 C7          3.0138   -0.0588    7.0775 C.2       1 <0>         0.0000
      8 C8          1.1533   -1.0249    2.8073 C.ar      1 <0>         0.0000
      9 C9          0.7439   -0.1467    7.0082 C.2       1 <0>         0.0000
     10 C10         1.7551   -1.1006    4.1291 C.2       1 <0>         0.0000
     11 C11        -0.5111   -0.0948    6.2455 C.3       1 <0>         0.0000
     12 C12         2.0179    0.2021    4.8869 C.3       1 <0>         0.0000
     13 N1          1.9332   -0.0015    6.3293 N.pl3     1 <0>         0.0000
     14 O1          2.0645   -2.1749    4.6708 O.2       1 <0>         0.0000
     15 S1          2.6145   -0.3041    8.7226 S.3       1 <0>         0.0000
     16 H1         -0.4502   -0.8230   -0.7154 H         1 <0>         0.0000
     17 H2         -0.8605   -2.8026    0.7227 H         1 <0>         0.0000
     18 H3          0.9863    1.0273    0.1013 H         1 <0>         0.0000
     19 H4          0.1593   -2.9375    2.9694 H         1 <0>         0.0000
     20 H5          2.0115    0.9046    2.3468 H         1 <0>         0.0000
     21 H6          0.1942   -0.4650    9.1336 H         1 <0>         0.0000
     22 H7          4.0216    0.0372    6.6970 H         1 <0>         0.0000
     23 H8         -0.8997    0.9370    6.1771 H         1 <0>         0.0000
     24 H9         -0.3911   -0.4710    5.2126 H         1 <0>         0.0000
     25 H10        -1.3050   -0.7165    6.6998 H         1 <0>         0.0000
     26 H11         1.2745    0.9523    4.5976 H         1 <0>         0.0000
     27 H12         3.0202    0.5714    4.6461 H         1 <0>         0.0000
@<TRIPOS>BOND
     1    1    3 ar
     2    1    2 ar
     3    1   16 1
     4    2    4 ar
     5    2   17 1
     6    3    5 ar
     7    3   18 1
     8    4    8 ar
     9    4   19 1
    10    5    8 ar
    11    5   20 1
    12    6    9 2
    13    6   15 1
    14    6   21 1
    15    7   13 2
    16    7   15 1
    17    7   22 1
    18    8   10 1
    19    9   11 1
    20    9   13 1
    21   10   12 1
    22   10   14 2
    23   11   23 1
    24   11   24 1
    25   11   25 1
    26   12   13 1
    27   12   26 1
    28   12   27 1
