@<TRIPOS>MOLECULE
*****
   50    54     0     0     0
SMALL
NO_CHARGES

@<TRIPOS>ATOM
      1 C1         -4.0325   -1.7944    4.1405 C.ar      1 <0>         0.0000
      2 C2          2.5463   -0.1206    0.2462 C.ar      1 <0>         0.0000
      3 C3         -3.7205   -0.7736    3.2394 C.ar      1 <0>         0.0000
      4 C4          1.3412    0.4051    0.7089 C.ar      1 <0>         0.0000
      5 C5         -3.6381   -1.7063    5.4790 C.ar      1 <0>         0.0000
      6 C6          4.3775   -3.1494   -0.4013 C.ar      1 <0>         0.0000
      7 C7          1.1784   -1.4611    2.2387 C.ar      1 <0>         0.0000
      8 C8          5.4797   -1.0641   -0.0016 C.ar      1 <0>         0.0000
      9 C9         -2.6072    0.4476    5.0058 C.ar      1 <0>         0.0000
     10 C10         5.5564   -3.5837   -1.0062 C.ar      1 <0>         0.0000
     11 C11         3.0933   -1.3118    0.7433 C.ar      1 <0>         0.0000
     12 C12         4.3298   -1.8521    0.1249 C.ar      1 <0>         0.0000
     13 C13         2.3946   -1.9738    1.7760 C.ar      1 <0>         0.0000
     14 C14        -3.0071    0.3579    3.6641 C.ar      1 <0>         0.0000
     15 C15         0.6370   -0.2804    1.7122 C.ar      1 <0>         0.0000
     16 C16        -2.9271   -0.5789    5.8955 C.ar      1 <0>         0.0000
     17 C17         6.6227   -1.5855   -0.6217 C.ar      1 <0>         0.0000
     18 C18         2.9301   -3.1716    2.4443 C.2       1 <0>         0.0000
     19 C19        -1.3235    1.2729    1.9225 C.2       1 <0>         0.0000
     20 C20        -3.7207    2.1436    1.9079 C.3       1 <0>         0.0000
     21 C21        -2.9916    2.8777    2.9919 C.3       1 <0>         0.0000
     22 C22        -2.6216    1.4293    2.6877 C.3       1 <0>         0.0000
     23 C23         7.8865   -0.7727   -0.7560 C.3       1 <0>         0.0000
     24 N1          6.6601   -2.8344   -1.1208 N.ar      1 <0>         0.0000
     25 N2          4.2498   -3.3677    2.7514 N.2       1 <0>         0.0000
     26 N3          2.1652   -4.1783    2.8842 N.2       1 <0>         0.0000
     27 N4          4.3256   -4.5108    3.3867 N.2       1 <0>         0.0000
     28 N5          3.0759   -4.9674    3.4520 N.pl3     1 <0>         0.0000
     29 N6         -0.5963    0.1499    2.2406 N.am      1 <0>         0.0000
     30 O1         -0.9692    2.1039    1.0874 O.2       1 <0>         0.0000
     31 Cl1        -2.4242   -0.4487    7.5729 Cl        1 <0>         0.0000
     32 H1         -4.5872   -2.6663    3.8047 H         1 <0>         0.0000
     33 H2          3.0670    0.3946   -0.5562 H         1 <0>         0.0000
     34 H3         -4.0293   -0.8478    2.2002 H         1 <0>         0.0000
     35 H4          0.9393    1.3212    0.2992 H         1 <0>         0.0000
     36 H5         -3.8789   -2.4930    6.1869 H         1 <0>         0.0000
     37 H6          3.5125   -3.8048   -0.3536 H         1 <0>         0.0000
     38 H7          0.6625   -1.9847    3.0398 H         1 <0>         0.0000
     39 H8          5.4959   -0.0568    0.4054 H         1 <0>         0.0000
     40 H9         -2.0508    1.3140    5.3503 H         1 <0>         0.0000
     41 H10         5.6157   -4.5873   -1.4261 H         1 <0>         0.0000
     42 H11        -4.7380    1.8191    2.1032 H         1 <0>         0.0000
     43 H12        -3.4867    2.4038    0.8814 H         1 <0>         0.0000
     44 H13        -2.2704    3.6296    2.6905 H         1 <0>         0.0000
     45 H14        -3.5100    3.0574    3.9286 H         1 <0>         0.0000
     46 H15         8.7052   -1.2598   -0.2163 H         1 <0>         0.0000
     47 H16         8.1849   -0.7099   -1.8072 H         1 <0>         0.0000
     48 H17         7.7630    0.2397   -0.3628 H         1 <0>         0.0000
     49 H18         2.8433   -5.8513    3.8917 H         1 <0>         0.0000
     50 H19        -0.9983   -0.4543    2.9469 H         1 <0>         0.0000
@<TRIPOS>BOND
     1    1    3 ar
     2    1    5 ar
     3    1   32 1
     4    2    4 ar
     5    2   11 ar
     6    2   33 1
     7    3   14 ar
     8    3   34 1
     9    4   15 ar
    10    4   35 1
    11    5   16 ar
    12    5   36 1
    13    6   10 ar
    14    6   12 ar
    15    6   37 1
    16    7   13 ar
    17    7   15 ar
    18    7   38 1
    19    8   12 ar
    20    8   17 ar
    21    8   39 1
    22    9   14 ar
    23    9   16 ar
    24    9   40 1
    25   10   24 ar
    26   10   41 1
    27   11   12 1
    28   11   13 ar
    29   13   18 1
    30   14   22 1
    31   15   29 1
    32   16   31 1
    33   17   23 1
    34   17   24 ar
    35   18   25 1
    36   18   26 2
    37   19   22 1
    38   19   29 am
    39   19   30 2
    40   20   21 1
    41   20   22 1
    42   20   42 1
    43   20   43 1
    44   21   22 1
    45   21   44 1
    46   21   45 1
    47   23   46 1
    48   23   47 1
    49   23   48 1
    50   25   27 2
    51   26   28 1
    52   27   28 1
    53   28   49 1
    54   29   50 1
