@<TRIPOS>MOLECULE
*****
   62    65     0     0     0
SMALL
NO_CHARGES

@<TRIPOS>ATOM
      1 C1          1.8974    5.8863    2.9098 C.ar      1 <0>         0.0000
      2 C2          0.1396    0.4107   -3.3636 C.ar      1 <0>         0.0000
      3 C3          3.1609    6.4422    3.1083 C.ar      1 <0>         0.0000
      4 C4          0.1011    0.6027   -1.9826 C.ar      1 <0>         0.0000
      5 C5          2.8931    3.6835    3.0703 C.ar      1 <0>         0.0000
      6 C6         -2.3239    0.3691   -1.9984 C.ar      1 <0>         0.0000
      7 C7          1.7610    4.4919    2.8801 C.ar      1 <0>         0.0000
      8 C8         -1.0480    0.1908   -4.0678 C.ar      1 <0>         0.0000
      9 C9         -2.2655    0.1741   -3.3807 C.ar      1 <0>         0.0000
     10 C10         4.3044    5.6542    3.2854 C.ar      1 <0>         0.0000
     11 C11         4.1589    4.2424    3.2820 C.ar      1 <0>         0.0000
     12 C12        -1.1264    0.5809   -1.2973 C.ar      1 <0>         0.0000
     13 C13        -1.1867    2.5085    2.3971 C.2       1 <0>         0.0000
     14 C14        -1.6921    3.7755    2.3257 C.2       1 <0>         0.0000
     15 C15         0.4668    3.8547    2.6645 C.2       1 <0>         0.0000
     16 C16        -0.4149   -1.0473   -7.7264 C.2       1 <0>         0.0000
     17 C17        -3.4127   -0.0401   -4.3457 C.3       1 <0>         0.0000
     18 C18        -2.7090   -0.5894   -5.6084 C.3       1 <0>         0.0000
     19 C19        -1.2692   -0.0153   -5.5567 C.3       1 <0>         0.0000
     20 C20         5.6560    6.3115    3.4242 C.3       1 <0>         0.0000
     21 C21        -3.0449    4.3567    2.1143 C.3       1 <0>         0.0000
     22 C22         5.2380    2.0756    2.9025 C.3       1 <0>         0.0000
     23 C23         5.8490    3.4116    4.8168 C.3       1 <0>         0.0000
     24 C24        -1.9003    1.1975    2.2451 C.3       1 <0>         0.0000
     25 C25        -0.2217   -0.9084   -6.2220 C.3       1 <0>         0.0000
     26 C26        -2.2595    0.8655    0.7973 C.3       1 <0>         0.0000
     27 N1          0.1874    2.5801    2.6143 N.2       1 <0>         0.0000
     28 N2          5.3147    3.4247    3.4524 N.pl3     1 <0>         0.0000
     29 O1         -1.1673   -0.3805   -8.3970 O.2       1 <0>         0.0000
     30 O2         -0.6367    4.6510    2.4943 O.3       1 <0>         0.0000
     31 O3          0.3642   -2.0003   -8.3258 O.3       1 <0>         0.0000
     32 O4         -1.0472    0.7697    0.0563 O.3       1 <0>         0.0000
     33 H1          1.0312    6.5232    2.7628 H         1 <0>         0.0000
     34 H2          1.0997    0.4376   -3.8748 H         1 <0>         0.0000
     35 H3          3.2702    7.5247    3.1001 H         1 <0>         0.0000
     36 H4          1.0066    0.7737   -1.4081 H         1 <0>         0.0000
     37 H5          2.7558    2.6087    3.0541 H         1 <0>         0.0000
     38 H6         -3.2807    0.3451   -1.4873 H         1 <0>         0.0000
     39 H7         -4.1816   -0.7169   -3.9589 H         1 <0>         0.0000
     40 H8         -3.9057    0.9179   -4.5595 H         1 <0>         0.0000
     41 H9         -2.6568   -1.6835   -5.5413 H         1 <0>         0.0000
     42 H10        -3.2207   -0.3379   -6.5388 H         1 <0>         0.0000
     43 H11        -1.2531    0.9554   -6.0692 H         1 <0>         0.0000
     44 H12         5.9130    6.5065    4.4729 H         1 <0>         0.0000
     45 H13         6.4403    5.6734    3.0081 H         1 <0>         0.0000
     46 H14         5.6699    7.2748    2.9061 H         1 <0>         0.0000
     47 H15        -3.3097    5.0521    2.9185 H         1 <0>         0.0000
     48 H16        -3.1056    4.9035    1.1661 H         1 <0>         0.0000
     49 H17        -3.7914    3.5588    2.0939 H         1 <0>         0.0000
     50 H18         6.2456    1.6475    2.8858 H         1 <0>         0.0000
     51 H19         4.8638    2.1121    1.8765 H         1 <0>         0.0000
     52 H20         4.5948    1.3941    3.4858 H         1 <0>         0.0000
     53 H21         6.8457    2.9576    4.8136 H         1 <0>         0.0000
     54 H22         5.2065    2.8373    5.5066 H         1 <0>         0.0000
     55 H23         5.9397    4.4256    5.2068 H         1 <0>         0.0000
     56 H24        -1.2610    0.4070    2.6468 H         1 <0>         0.0000
     57 H25        -2.8303    1.1951    2.8259 H         1 <0>         0.0000
     58 H26         0.7858   -0.5007   -6.0639 H         1 <0>         0.0000
     59 H27        -0.2285   -1.9020   -5.7544 H         1 <0>         0.0000
     60 H28        -2.8078   -0.0861    0.7525 H         1 <0>         0.0000
     61 H29        -2.8968    1.6520    0.3709 H         1 <0>         0.0000
     62 H30         0.9067   -2.4508   -7.6563 H         1 <0>         0.0000
@<TRIPOS>BOND
     1    1    3 ar
     2    1    7 ar
     3    1   33 1
     4    2    4 ar
     5    2    8 ar
     6    2   34 1
     7    3   10 ar
     8    3   35 1
     9    4   12 ar
    10    4   36 1
    11    5    7 ar
    12    5   11 ar
    13    5   37 1
    14    6    9 ar
    15    6   12 ar
    16    6   38 1
    17    7   15 1
    18    8    9 ar
    19    8   19 1
    20    9   17 1
    21   10   11 ar
    22   10   20 1
    23   11   28 1
    24   12   32 1
    25   13   14 2
    26   13   24 1
    27   13   27 1
    28   14   21 1
    29   14   30 1
    30   15   27 2
    31   15   30 1
    32   16   25 1
    33   16   29 2
    34   16   31 1
    35   17   18 1
    36   17   39 1
    37   17   40 1
    38   18   19 1
    39   18   41 1
    40   18   42 1
    41   19   25 1
    42   19   43 1
    43   20   44 1
    44   20   45 1
    45   20   46 1
    46   21   47 1
    47   21   48 1
    48   21   49 1
    49   22   28 1
    50   22   50 1
    51   22   51 1
    52   22   52 1
    53   23   28 1
    54   23   53 1
    55   23   54 1
    56   23   55 1
    57   24   26 1
    58   24   56 1
    59   24   57 1
    60   25   58 1
    61   25   59 1
    62   26   32 1
    63   26   60 1
    64   26   61 1
    65   31   62 1
