@<TRIPOS>MOLECULE
*****
   60    63     0     0     0
SMALL
NO_CHARGES

@<TRIPOS>ATOM
      1 C1         10.3559   -6.4598    2.6019 C.1       1 <0>         0.0000
      2 C2          8.2309   -5.8895    1.4937 C.ar      1 <0>         0.0000
      3 C3          8.9608   -4.6015    3.4208 C.ar      1 <0>         0.0000
      4 C4          7.0915   -5.0960    1.4038 C.ar      1 <0>         0.0000
      5 C5          7.8166   -3.8159    3.3204 C.ar      1 <0>         0.0000
      6 C6          4.9892   -2.7373    3.3622 C.ar      1 <0>         0.0000
      7 C7          5.1286   -2.8398    0.9543 C.ar      1 <0>         0.0000
      8 C8          3.8506   -1.9443    3.2684 C.ar      1 <0>         0.0000
      9 C9          3.9954   -2.0336    0.8561 C.ar      1 <0>         0.0000
     10 C10         2.9807    0.9776    0.3034 C.ar      1 <0>         0.0000
     11 C11         0.5182    1.0448   -0.9868 C.ar      1 <0>         0.0000
     12 C12         9.1768   -5.6462    2.5051 C.ar      1 <0>         0.0000
     13 C13         6.8618   -4.0453    2.3120 C.ar      1 <0>         0.0000
     14 C14         5.6489   -3.2026    2.2081 C.ar      1 <0>         0.0000
     15 C15         3.3388   -1.5791    2.0107 C.ar      1 <0>         0.0000
     16 C16         1.9309    0.1602    0.7504 C.ar      1 <0>         0.0000
     17 C17         0.6842    0.1918    0.1082 C.ar      1 <0>         0.0000
     18 C18         2.7979    1.8504   -0.7709 C.ar      1 <0>         0.0000
     19 C19         1.5487    1.8702   -1.4350 C.ar      1 <0>         0.0000
     20 C20         2.1265   -0.7269    1.9257 C.2       1 <0>         0.0000
     21 C21         0.0641    0.8467    4.0153 C.2       1 <0>         0.0000
     22 C22        -0.4199   -0.7071    0.6029 C.3       1 <0>         0.0000
     23 C23        -0.9321   -0.3065    2.0008 C.3       1 <0>         0.0000
     24 C24        -1.7784   -1.4369    2.6082 C.3       1 <0>         0.0000
     25 C25        -1.3589    2.2420    5.4203 C.3       1 <0>         0.0000
     26 C26         4.9945    2.7676   -0.5398 C.3       1 <0>         0.0000
     27 C27         2.0536    2.5095   -3.6729 C.3       1 <0>         0.0000
     28 N1         11.3137   -7.1200    2.6792 N.1       1 <0>         0.0000
     29 N2          1.3043   -0.8087    2.9204 N.2       1 <0>         0.0000
     30 N3          0.1993    0.0880    2.8535 N.am      1 <0>         0.0000
     31 N4         -1.1648    1.4708    4.1953 N.am      1 <0>         0.0000
     32 O1          1.0083    1.0327    4.7804 O.2       1 <0>         0.0000
     33 O2          3.7516    2.7133   -1.2373 O.3       1 <0>         0.0000
     34 O3          1.2919    2.7293   -2.4747 O.3       1 <0>         0.0000
     35 H1          8.3913   -6.7032    0.7931 H         1 <0>         0.0000
     36 H2          9.6947   -4.4075    4.1971 H         1 <0>         0.0000
     37 H3          6.3546   -5.3116    0.6359 H         1 <0>         0.0000
     38 H4          7.6744   -2.9951    4.0170 H         1 <0>         0.0000
     39 H5          5.3592   -3.0215    4.3435 H         1 <0>         0.0000
     40 H6          5.6317   -3.1640    0.0474 H         1 <0>         0.0000
     41 H7          3.3394   -1.5922    4.1585 H         1 <0>         0.0000
     42 H8          3.6175   -1.7566   -0.1234 H         1 <0>         0.0000
     43 H9          3.9284    0.9410    0.8274 H         1 <0>         0.0000
     44 H10        -0.4290    1.0919   -1.5179 H         1 <0>         0.0000
     45 H11        -1.2665   -0.6980   -0.0897 H         1 <0>         0.0000
     46 H12        -0.0600   -1.7416    0.6478 H         1 <0>         0.0000
     47 H13        -1.5345    0.5987    1.8756 H         1 <0>         0.0000
     48 H14        -1.1589   -2.3255    2.7607 H         1 <0>         0.0000
     49 H15        -2.6069   -1.7003    1.9416 H         1 <0>         0.0000
     50 H16        -2.1994   -1.1584    3.5794 H         1 <0>         0.0000
     51 H17        -1.3740    1.6121    6.3188 H         1 <0>         0.0000
     52 H18        -2.3038    2.7863    5.3416 H         1 <0>         0.0000
     53 H19        -0.5440    2.9590    5.5257 H         1 <0>         0.0000
     54 H20         5.5852    3.5320   -1.0459 H         1 <0>         0.0000
     55 H21         5.5229    1.8076   -0.5880 H         1 <0>         0.0000
     56 H22         4.8482    3.0535    0.5084 H         1 <0>         0.0000
     57 H23         1.6766    3.2286   -4.4025 H         1 <0>         0.0000
     58 H24         1.8903    1.4907   -4.0462 H         1 <0>         0.0000
     59 H25         3.1201    2.6774   -3.5034 H         1 <0>         0.0000
     60 H26        -1.9865    0.9967    3.8492 H         1 <0>         0.0000
@<TRIPOS>BOND
     1    1   12 1
     2    1   28 3
     3    2    4 ar
     4    2   12 ar
     5    2   35 1
     6    3    5 ar
     7    3   12 ar
     8    3   36 1
     9    4   13 ar
    10    4   37 1
    11    5   13 ar
    12    5   38 1
    13    6    8 ar
    14    6   14 ar
    15    6   39 1
    16    7    9 ar
    17    7   14 ar
    18    7   40 1
    19    8   15 ar
    20    8   41 1
    21    9   15 ar
    22    9   42 1
    23   10   16 ar
    24   10   18 ar
    25   10   43 1
    26   11   17 ar
    27   11   19 ar
    28   11   44 1
    29   13   14 1
    30   15   20 1
    31   16   17 ar
    32   16   20 1
    33   17   22 1
    34   18   19 ar
    35   18   33 1
    36   19   34 1
    37   20   29 2
    38   21   30 am
    39   21   31 am
    40   21   32 2
    41   22   23 1
    42   22   45 1
    43   22   46 1
    44   23   24 1
    45   23   30 1
    46   23   47 1
    47   24   48 1
    48   24   49 1
    49   24   50 1
    50   25   31 1
    51   25   51 1
    52   25   52 1
    53   25   53 1
    54   26   33 1
    55   26   54 1
    56   26   55 1
    57   26   56 1
    58   27   34 1
    59   27   57 1
    60   27   58 1
    61   27   59 1
    62   29   30 1
    63   31   60 1
