@<TRIPOS>MOLECULE
*****
   66    70     0     0     0
SMALL
NO_CHARGES

@<TRIPOS>ATOM
      1 C1         -0.5295   -2.4207  -13.3469 C.ar      1 <0>         0.0000
      2 C2         -1.3274   -0.5133   -6.6020 C.ar      1 <0>         0.0000
      3 C3         -1.1873   -1.4256  -12.6191 C.ar      1 <0>         0.0000
      4 C4         -1.2929   -0.9610   -5.2818 C.ar      1 <0>         0.0000
      5 C5          1.0021    0.0999   -6.4785 C.ar      1 <0>         0.0000
      6 C6          0.8448   -2.5843  -13.1581 C.ar      1 <0>         0.0000
      7 C7          0.9285   -0.8748  -11.6349 C.ar      1 <0>         0.0000
      8 C8         -0.1816    0.0088   -7.2175 C.ar      1 <0>         0.0000
      9 C9         -0.4517   -0.6294  -11.7369 C.ar      1 <0>         0.0000
     10 C10        -0.1007   -0.9060   -4.5490 C.ar      1 <0>         0.0000
     11 C11         1.0411   -0.3613   -5.1697 C.ar      1 <0>         0.0000
     12 C12         0.9333   -0.9013   -2.3472 C.2       1 <0>         0.0000
     13 C13        -0.1304    0.5291   -8.6284 C.2       1 <0>         0.0000
     14 C14         3.4382   -0.6069   -4.8017 C.2       1 <0>         0.0000
     15 C15         1.9071    0.1021   -2.9667 C.3       1 <0>         0.0000
     16 C16         8.6372   -4.1439   -3.5765 C.3       1 <0>         0.0000
     17 C17         7.7131   -3.6219   -2.4691 C.3       1 <0>         0.0000
     18 C18         7.9112   -4.2070   -4.9262 C.3       1 <0>         0.0000
     19 C19        -0.6091   -3.6009   -2.1050 C.3       1 <0>         0.0000
     20 C20        -1.3223   -3.5751   -3.4336 C.3       1 <0>         0.0000
     21 C21         7.1055   -2.2575   -2.8392 C.3       1 <0>         0.0000
     22 C22         7.3034   -2.8453   -5.3028 C.3       1 <0>         0.0000
     23 C23        -1.0367   -2.2844   -2.6991 C.3       1 <0>         0.0000
     24 C24         6.3854   -2.3505   -4.1841 C.3       1 <0>         0.0000
     25 C25        -1.1049    0.4487  -10.8970 C.3       1 <0>         0.0000
     26 C26         4.6277   -0.5098   -3.8148 C.3       1 <0>         0.0000
     27 N1          1.5709   -1.8288  -12.3186 N.ar      1 <0>         0.0000
     28 N2         -0.0143   -1.3976   -3.2228 N.am      1 <0>         0.0000
     29 N3          2.2154   -0.2626   -4.3514 N.am      1 <0>         0.0000
     30 N4         -1.1272    0.1153   -9.4680 N.am      1 <0>         0.0000
     31 N5          5.8198   -0.9927   -4.5847 N.4       1 <0>         0.0000
     32 O1          1.0138   -1.2041   -1.1674 O.2       1 <0>         0.0000
     33 O2          0.7709    1.2924   -8.9805 O.2       1 <0>         0.0000
     34 O3          3.6918   -0.9819   -5.9529 O.2       1 <0>         0.0000
     35 H1         -1.0663   -3.0550  -14.0464 H         1 <0>         0.0000
     36 H2         -2.2760   -0.5421   -7.1301 H         1 <0>         0.0000
     37 H3         -2.2572   -1.2679  -12.7424 H         1 <0>         0.0000
     38 H4         -2.1908   -1.3513   -4.8186 H         1 <0>         0.0000
     39 H5          1.8761    0.5320   -6.9498 H         1 <0>         0.0000
     40 H6          1.3893   -3.3510  -13.7068 H         1 <0>         0.0000
     41 H7          1.5355   -0.2636  -10.9687 H         1 <0>         0.0000
     42 H8          1.4549    1.1006   -2.9544 H         1 <0>         0.0000
     43 H9          2.7913    0.1247   -2.3358 H         1 <0>         0.0000
     44 H10         9.0143   -5.1355   -3.3093 H         1 <0>         0.0000
     45 H11         9.5133   -3.4879   -3.6615 H         1 <0>         0.0000
     46 H12         6.9032   -4.3411   -2.2922 H         1 <0>         0.0000
     47 H13         8.2566   -3.5250   -1.5250 H         1 <0>         0.0000
     48 H14         8.5950   -4.5229   -5.7191 H         1 <0>         0.0000
     49 H15         7.1126   -4.9583   -4.8833 H         1 <0>         0.0000
     50 H16        -1.1415   -3.9369   -1.2217 H         1 <0>         0.0000
     51 H17         0.4525   -3.8210   -2.1042 H         1 <0>         0.0000
     52 H18        -0.7381   -3.7794   -4.3255 H         1 <0>         0.0000
     53 H19        -2.3568   -3.9003   -3.4841 H         1 <0>         0.0000
     54 H20         6.4263   -1.9224   -2.0471 H         1 <0>         0.0000
     55 H21         7.9091   -1.5115   -2.9159 H         1 <0>         0.0000
     56 H22         8.1119   -2.1171   -5.4568 H         1 <0>         0.0000
     57 H23         6.7457   -2.9222   -6.2434 H         1 <0>         0.0000
     58 H24        -1.8662   -1.7665   -2.2241 H         1 <0>         0.0000
     59 H25         5.5102   -3.0044   -4.1092 H         1 <0>         0.0000
     60 H26        -0.5649    1.3924  -10.9862 H         1 <0>         0.0000
     61 H27        -2.1348    0.6148  -11.2256 H         1 <0>         0.0000
     62 H28         4.4907   -1.1409   -2.9374 H         1 <0>         0.0000
     63 H29         4.7957    0.5165   -3.4850 H         1 <0>         0.0000
     64 H30        -1.6653   -0.6996   -9.2026 H         1 <0>         0.0000
     65 H31         6.5737   -0.2996   -4.5720 H         1 <0>         0.0000
     66 H32         5.4481   -1.0629   -5.5642 H         1 <0>         0.0000
@<TRIPOS>BOND
     1    1    3 ar
     2    1    6 ar
     3    1   35 1
     4    2    4 ar
     5    2    8 ar
     6    2   36 1
     7    3    9 ar
     8    3   37 1
     9    4   10 ar
    10    4   38 1
    11    5    8 ar
    12    5   11 ar
    13    5   39 1
    14    6   27 ar
    15    6   40 1
    16    7    9 ar
    17    7   27 ar
    18    7   41 1
    19    8   13 1
    20    9   25 1
    21   10   11 ar
    22   10   28 1
    23   11   29 1
    24   12   15 1
    25   12   28 am
    26   12   32 2
    27   13   30 am
    28   13   33 2
    29   14   26 1
    30   14   29 am
    31   14   34 2
    32   15   29 1
    33   15   42 1
    34   15   43 1
    35   16   18 1
    36   16   17 1
    37   16   44 1
    38   16   45 1
    39   17   21 1
    40   17   46 1
    41   17   47 1
    42   18   22 1
    43   18   48 1
    44   18   49 1
    45   19   20 1
    46   19   23 1
    47   19   50 1
    48   19   51 1
    49   20   23 1
    50   20   52 1
    51   20   53 1
    52   21   24 1
    53   21   54 1
    54   21   55 1
    55   22   24 1
    56   22   56 1
    57   22   57 1
    58   23   28 1
    59   23   58 1
    60   24   31 1
    61   24   59 1
    62   25   30 1
    63   25   60 1
    64   25   61 1
    65   26   31 1
    66   26   62 1
    67   26   63 1
    68   30   64 1
    69   31   65 1
    70   31   66 1
