@<TRIPOS>MOLECULE
*****
   48    51     0     0     0
SMALL
NO_CHARGES

@<TRIPOS>ATOM
      1 C1          5.2111   -1.1928   -0.7762 C.ar      1 <0>         0.0000
      2 C2          4.5941   -3.1549    0.4839 C.ar      1 <0>         0.0000
      3 C3          2.1339   -1.5520    1.2548 C.ar      1 <0>         0.0000
      4 C4          2.1975   -0.8026   -1.0390 C.ar      1 <0>         0.0000
      5 C5          6.5127   -1.6766   -0.9182 C.ar      1 <0>         0.0000
      6 C6          5.8914   -3.6501    0.3556 C.ar      1 <0>         0.0000
      7 C7          0.8069   -1.1377    1.3588 C.ar      1 <0>         0.0000
      8 C8          0.8682   -0.3892   -0.9487 C.ar      1 <0>         0.0000
      9 C9         10.9868   -1.7540   -3.7693 C.ar      1 <0>         0.0000
     10 C10         9.9985   -3.8708   -3.0949 C.ar      1 <0>         0.0000
     11 C11        -1.0173   -4.1533    1.7463 C.ar      1 <0>         0.0000
     12 C12        -0.3260   -3.7490   -0.5454 C.ar      1 <0>         0.0000
     13 C13        11.5690   -2.3726   -4.8770 C.ar      1 <0>         0.0000
     14 C14        10.5898   -4.4909   -4.1992 C.ar      1 <0>         0.0000
     15 C15         0.0729   -5.0055    1.9306 C.ar      1 <0>         0.0000
     16 C16         0.7736   -4.5881   -0.3581 C.ar      1 <0>         0.0000
     17 C17         4.2318   -1.9176   -0.0767 C.ar      1 <0>         0.0000
     18 C18         2.8451   -1.4111    0.0508 C.ar      1 <0>         0.0000
     19 C19         6.8423   -2.9057   -0.3435 C.ar      1 <0>         0.0000
     20 C20         0.1763   -0.5850    0.2457 C.ar      1 <0>         0.0000
     21 C21        10.2087   -2.5060   -2.8868 C.ar      1 <0>         0.0000
     22 C22        -1.2023   -3.5195    0.5163 C.ar      1 <0>         0.0000
     23 C23        11.3681   -3.7396   -5.0816 C.ar      1 <0>         0.0000
     24 C24         0.9684   -5.2053    0.8787 C.ar      1 <0>         0.0000
     25 O1          8.1083   -3.4918   -0.4848 O.3       1 <0>         0.0000
     26 O2         -1.1902   -0.2688    0.3505 O.3       1 <0>         0.0000
     27 O3          9.6167   -1.7954   -1.8368 O.3       1 <0>         0.0000
     28 O4         -2.3029   -2.6517    0.4539 O.3       1 <0>         0.0000
     29 S1          9.4731   -2.5266   -0.3287 S.3       1 <0>         0.0000
     30 S2         -2.2117   -1.2845   -0.5239 S.3       1 <0>         0.0000
     31 Cl1        12.1022   -4.5224   -6.4724 Cl        1 <0>         0.0000
     32 Cl2         2.3660   -6.2466    1.1180 Cl        1 <0>         0.0000
     33 H1          4.9604   -0.2254   -1.2028 H         1 <0>         0.0000
     34 H2          3.8516   -3.7517    1.0043 H         1 <0>         0.0000
     35 H3          2.6214   -1.9948    2.1183 H         1 <0>         0.0000
     36 H4          2.7253   -0.6906   -1.9821 H         1 <0>         0.0000
     37 H5          7.2573   -1.1090   -1.4657 H         1 <0>         0.0000
     38 H6          6.1716   -4.6093    0.7806 H         1 <0>         0.0000
     39 H7          0.2447   -1.2715    2.2773 H         1 <0>         0.0000
     40 H8          0.3586    0.0446   -1.8043 H         1 <0>         0.0000
     41 H9         11.1316   -0.6946   -3.5814 H         1 <0>         0.0000
     42 H10         9.3767   -4.4432   -2.4155 H         1 <0>         0.0000
     43 H11        -1.7158   -3.9563    2.5537 H         1 <0>         0.0000
     44 H12        -0.4676   -3.2455   -1.4950 H         1 <0>         0.0000
     45 H13        12.1785   -1.8003   -5.5689 H         1 <0>         0.0000
     46 H14        10.4360   -5.5506   -4.3763 H         1 <0>         0.0000
     47 H15         0.2320   -5.4953    2.8859 H         1 <0>         0.0000
     48 H16         1.4785   -4.7514   -1.1668 H         1 <0>         0.0000
@<TRIPOS>BOND
     1    1    5 ar
     2    1   17 ar
     3    1   33 1
     4    2    6 ar
     5    2   17 ar
     6    2   34 1
     7    3    7 ar
     8    3   18 ar
     9    3   35 1
    10    4    8 ar
    11    4   18 ar
    12    4   36 1
    13    5   19 ar
    14    5   37 1
    15    6   19 ar
    16    6   38 1
    17    7   20 ar
    18    7   39 1
    19    8   20 ar
    20    8   40 1
    21    9   13 ar
    22    9   21 ar
    23    9   41 1
    24   10   14 ar
    25   10   21 ar
    26   10   42 1
    27   11   15 ar
    28   11   22 ar
    29   11   43 1
    30   12   16 ar
    31   12   22 ar
    32   12   44 1
    33   13   23 ar
    34   13   45 1
    35   14   23 ar
    36   14   46 1
    37   15   24 ar
    38   15   47 1
    39   16   24 ar
    40   16   48 1
    41   17   18 1
    42   19   25 1
    43   20   26 1
    44   21   27 1
    45   22   28 1
    46   23   31 1
    47   24   32 1
    48   25   29 1
    49   26   30 1
    50   27   29 1
    51   28   30 1
