@<TRIPOS>MOLECULE
*****
   48    51     0     0     0
SMALL
NO_CHARGES

@<TRIPOS>ATOM
      1 C1          3.5783   -2.1189   -1.6754 C.ar      1 <0>         0.0000
      2 C2          4.2429   -4.0101   -0.3327 C.ar      1 <0>         0.0000
      3 C3          2.7206   -2.6609    1.9003 C.ar      1 <0>         0.0000
      4 C4          1.1967   -1.9421    0.1733 C.ar      1 <0>         0.0000
      5 C5          4.5279   -2.4584   -2.6383 C.ar      1 <0>         0.0000
      6 C6          5.2002   -4.3557   -1.2848 C.ar      1 <0>         0.0000
      7 C7          1.8080   -2.2705    2.8795 C.ar      1 <0>         0.0000
      8 C8          0.2790   -1.5419    1.1430 C.ar      1 <0>         0.0000
      9 C9          8.1076   -3.2846    0.3439 C.ar      1 <0>         0.0000
     10 C10         7.1893   -1.3309   -0.7639 C.ar      1 <0>         0.0000
     11 C11         0.6999    1.9348    0.9910 C.ar      1 <0>         0.0000
     12 C12         2.4357    1.0861    2.4587 C.ar      1 <0>         0.0000
     13 C13         7.5512   -2.8653    1.5543 C.ar      1 <0>         0.0000
     14 C14         6.6230   -0.9169    0.4409 C.ar      1 <0>         0.0000
     15 C15         1.6181    2.0102   -0.0587 C.ar      1 <0>         0.0000
     16 C16         3.3507    1.1488    1.4086 C.ar      1 <0>         0.0000
     17 C17         3.4256   -2.8799   -0.5020 C.ar      1 <0>         0.0000
     18 C18         2.4378   -2.4943    0.5322 C.ar      1 <0>         0.0000
     19 C19         5.3458   -3.5672   -2.4241 C.ar      1 <0>         0.0000
     20 C20         0.5990   -1.6950    2.4902 C.ar      1 <0>         0.0000
     21 C21         7.9067   -2.5263   -0.8105 C.ar      1 <0>         0.0000
     22 C22         1.1091    1.4552    2.2363 C.ar      1 <0>         0.0000
     23 C23         6.7971   -1.6913    1.5878 C.ar      1 <0>         0.0000
     24 C24         2.9344    1.5988    0.1559 C.ar      1 <0>         0.0000
     25 O1          6.3681   -3.9169   -3.3246 O.3       1 <0>         0.0000
     26 O2         -0.3287   -1.2158    3.4326 O.3       1 <0>         0.0000
     27 O3          8.4601   -3.0528   -1.9880 O.3       1 <0>         0.0000
     28 O4          0.1051    1.3674    3.2133 O.3       1 <0>         0.0000
     29 S1          7.6317   -2.8093   -3.4349 S.3       1 <0>         0.0000
     30 S2          0.1892    0.1105    4.3321 S.3       1 <0>         0.0000
     31 Cl1         6.0452   -1.1831    3.0976 Cl        1 <0>         0.0000
     32 Cl2         4.0867    1.6390   -1.1760 Cl        1 <0>         0.0000
     33 H1          2.9806   -1.2242   -1.8186 H         1 <0>         0.0000
     34 H2          4.1288   -4.6304    0.5513 H         1 <0>         0.0000
     35 H3          3.6835   -3.0576    2.2066 H         1 <0>         0.0000
     36 H4          0.9414   -1.8260   -0.8758 H         1 <0>         0.0000
     37 H5          4.6641   -1.8460   -3.5247 H         1 <0>         0.0000
     38 H6          5.8515   -5.2129   -1.1463 H         1 <0>         0.0000
     39 H7          2.0478   -2.3695    3.9340 H         1 <0>         0.0000
     40 H8         -0.6700   -1.0908    0.8711 H         1 <0>         0.0000
     41 H9          8.6735   -4.2088    0.2800 H         1 <0>         0.0000
     42 H10         7.0304   -0.7455   -1.6621 H         1 <0>         0.0000
     43 H11        -0.3378    2.2189    0.8465 H         1 <0>         0.0000
     44 H12         2.7511    0.7095    3.4247 H         1 <0>         0.0000
     45 H13         7.6878   -3.4554    2.4549 H         1 <0>         0.0000
     46 H14         6.0465   -0.0002    0.4688 H         1 <0>         0.0000
     47 H15         1.3072    2.3672   -1.0353 H         1 <0>         0.0000
     48 H16         4.3744    0.8379    1.5780 H         1 <0>         0.0000
@<TRIPOS>BOND
     1    1    5 ar
     2    1   17 ar
     3    1   33 1
     4    2    6 ar
     5    2   17 ar
     6    2   34 1
     7    3    7 ar
     8    3   18 ar
     9    3   35 1
    10    4    8 ar
    11    4   18 ar
    12    4   36 1
    13    5   19 ar
    14    5   37 1
    15    6   19 ar
    16    6   38 1
    17    7   20 ar
    18    7   39 1
    19    8   20 ar
    20    8   40 1
    21    9   13 ar
    22    9   21 ar
    23    9   41 1
    24   10   14 ar
    25   10   21 ar
    26   10   42 1
    27   11   15 ar
    28   11   22 ar
    29   11   43 1
    30   12   16 ar
    31   12   22 ar
    32   12   44 1
    33   13   23 ar
    34   13   45 1
    35   14   23 ar
    36   14   46 1
    37   15   24 ar
    38   15   47 1
    39   16   24 ar
    40   16   48 1
    41   17   18 1
    42   19   25 1
    43   20   26 1
    44   21   27 1
    45   22   28 1
    46   23   31 1
    47   24   32 1
    48   25   29 1
    49   26   30 1
    50   27   29 1
    51   28   30 1
