@<TRIPOS>MOLECULE
*****
   48    51     0     0     0
SMALL
NO_CHARGES

@<TRIPOS>ATOM
      1 C1          3.9871   -2.6866   -1.6956 C.ar      1 <0>         0.0000
      2 C2          5.7646   -2.7967   -0.0735 C.ar      1 <0>         0.0000
      3 C3          3.5636   -2.8639    1.9949 C.ar      1 <0>         0.0000
      4 C4          2.3628   -1.4010    0.4988 C.ar      1 <0>         0.0000
      5 C5          4.8867   -3.0163   -2.7085 C.ar      1 <0>         0.0000
      6 C6          6.6761   -3.1207   -1.0764 C.ar      1 <0>         0.0000
      7 C7          2.6351   -2.6083    3.0032 C.ar      1 <0>         0.0000
      8 C8          1.4236   -1.1441    1.4961 C.ar      1 <0>         0.0000
      9 C9          7.1456   -6.6671   -0.7174 C.ar      1 <0>         0.0000
     10 C10         5.1402   -6.2970   -2.0355 C.ar      1 <0>         0.0000
     11 C11        -1.2714   -3.0683    0.3072 C.ar      1 <0>         0.0000
     12 C12         0.2071   -4.5529    1.5307 C.ar      1 <0>         0.0000
     13 C13         6.3672   -6.7679    0.4380 C.ar      1 <0>         0.0000
     14 C14         4.3586   -6.3942   -0.8845 C.ar      1 <0>         0.0000
     15 C15        -0.7292   -3.5153   -0.8996 C.ar      1 <0>         0.0000
     16 C16         0.7589   -4.9913    0.3274 C.ar      1 <0>         0.0000
     17 C17         4.4042   -2.5850   -0.3572 C.ar      1 <0>         0.0000
     18 C18         3.4386   -2.2769    0.7223 C.ar      1 <0>         0.0000
     19 C19         6.2235   -3.2515   -2.3892 C.ar      1 <0>         0.0000
     20 C20         1.5579   -1.7641    2.7364 C.ar      1 <0>         0.0000
     21 C21         6.5257   -6.4121   -1.9410 C.ar      1 <0>         0.0000
     22 C22        -0.7880   -3.5755    1.5145 C.ar      1 <0>         0.0000
     23 C23         4.9819   -6.6141    0.3436 C.ar      1 <0>         0.0000
     24 C24         0.2950   -4.4633   -0.8774 C.ar      1 <0>         0.0000
     25 O1          7.0545   -3.6373   -3.4572 O.3       1 <0>         0.0000
     26 O2          0.5472   -1.5349    3.6875 O.3       1 <0>         0.0000
     27 O3          7.2716   -6.2389   -3.1166 O.3       1 <0>         0.0000
     28 O4         -1.3627   -3.0307    2.6735 O.3       1 <0>         0.0000
     29 S1          8.2023   -4.8295   -3.1678 S.3       1 <0>         0.0000
     30 S2         -0.4029   -2.8779    4.0493 S.3       1 <0>         0.0000
     31 Cl1         4.0039   -6.6867    1.8060 Cl        1 <0>         0.0000
     32 Cl2         1.0188   -4.9966   -2.3922 Cl        1 <0>         0.0000
     33 H1          2.9379   -2.5640   -1.9455 H         1 <0>         0.0000
     34 H2          6.1241   -2.6887    0.9457 H         1 <0>         0.0000
     35 H3          4.3687   -3.5664    2.1869 H         1 <0>         0.0000
     36 H4          2.2572   -0.9120   -0.4650 H         1 <0>         0.0000
     37 H5          4.5576   -3.1382   -3.7360 H         1 <0>         0.0000
     38 H6          7.7186   -3.2986   -0.8357 H         1 <0>         0.0000
     39 H7          2.7179   -3.0928    3.9717 H         1 <0>         0.0000
     40 H8          0.5751   -0.4911    1.3184 H         1 <0>         0.0000
     41 H9          8.2261   -6.7595   -0.6647 H         1 <0>         0.0000
     42 H10         4.6846   -6.0923   -2.9984 H         1 <0>         0.0000
     43 H11        -2.0487   -2.3107    0.3234 H         1 <0>         0.0000
     44 H12         0.5850   -4.9419    2.4690 H         1 <0>         0.0000
     45 H13         6.8319   -6.9546    1.4008 H         1 <0>         0.0000
     46 H14         3.2844   -6.2729   -0.9535 H         1 <0>         0.0000
     47 H15        -1.0879   -3.1174   -1.8435 H         1 <0>         0.0000
     48 H16         1.5486   -5.7329    0.3438 H         1 <0>         0.0000
@<TRIPOS>BOND
     1    1    5 ar
     2    1   17 ar
     3    1   33 1
     4    2    6 ar
     5    2   17 ar
     6    2   34 1
     7    3    7 ar
     8    3   18 ar
     9    3   35 1
    10    4    8 ar
    11    4   18 ar
    12    4   36 1
    13    5   19 ar
    14    5   37 1
    15    6   19 ar
    16    6   38 1
    17    7   20 ar
    18    7   39 1
    19    8   20 ar
    20    8   40 1
    21    9   13 ar
    22    9   21 ar
    23    9   41 1
    24   10   14 ar
    25   10   21 ar
    26   10   42 1
    27   11   15 ar
    28   11   22 ar
    29   11   43 1
    30   12   16 ar
    31   12   22 ar
    32   12   44 1
    33   13   23 ar
    34   13   45 1
    35   14   23 ar
    36   14   46 1
    37   15   24 ar
    38   15   47 1
    39   16   24 ar
    40   16   48 1
    41   17   18 1
    42   19   25 1
    43   20   26 1
    44   21   27 1
    45   22   28 1
    46   23   31 1
    47   24   32 1
    48   25   29 1
    49   26   30 1
    50   27   29 1
    51   28   30 1
