@<TRIPOS>MOLECULE
*****
   48    51     0     0     0
SMALL
NO_CHARGES

@<TRIPOS>ATOM
      1 C1          4.3975   -2.9611   -1.4789 C.ar      1 <0>         0.0000
      2 C2          5.8757   -2.1831    0.2637 C.ar      1 <0>         0.0000
      3 C3          3.2960   -1.7338    1.8379 C.ar      1 <0>         0.0000
      4 C4          2.4410   -0.9737   -0.2890 C.ar      1 <0>         0.0000
      5 C5          5.4859   -3.4805   -2.1778 C.ar      1 <0>         0.0000
      6 C6          6.9736   -2.6933   -0.4296 C.ar      1 <0>         0.0000
      7 C7          2.2210   -1.1342    2.4941 C.ar      1 <0>         0.0000
      8 C8          1.3600   -0.3717    0.3560 C.ar      1 <0>         0.0000
      9 C9          6.5417   -0.3718   -3.1399 C.ar      1 <0>         0.0000
     10 C10         5.6618   -1.4835   -5.1103 C.ar      1 <0>         0.0000
     11 C11        -2.3844   -0.9107   -0.2496 C.ar      1 <0>         0.0000
     12 C12        -3.6025    0.0196    1.6350 C.ar      1 <0>         0.0000
     13 C13         5.3234    0.2888   -2.9726 C.ar      1 <0>         0.0000
     14 C14         4.4481   -0.8117   -4.9540 C.ar      1 <0>         0.0000
     15 C15        -3.2339   -0.2421   -1.1345 C.ar      1 <0>         0.0000
     16 C16        -4.4477    0.6955    0.7527 C.ar      1 <0>         0.0000
     17 C17         4.5746   -2.2854   -0.2593 C.ar      1 <0>         0.0000
     18 C18         3.4235   -1.6661    0.4390 C.ar      1 <0>         0.0000
     19 C19         6.7695   -3.3153   -1.6605 C.ar      1 <0>         0.0000
     20 C20         1.2605   -0.4549    1.7439 C.ar      1 <0>         0.0000
     21 C21         6.6949   -1.2713   -4.1959 C.ar      1 <0>         0.0000
     22 C22        -2.5770   -0.7782    1.1256 C.ar      1 <0>         0.0000
     23 C23         4.2844    0.0603   -3.8765 C.ar      1 <0>         0.0000
     24 C24        -4.2572    0.5593   -0.6249 C.ar      1 <0>         0.0000
     25 O1          7.8558   -3.7570   -2.4368 O.3       1 <0>         0.0000
     26 O2          0.1902    0.2157    2.3527 O.3       1 <0>         0.0000
     27 O3          7.8538   -2.0290   -4.4228 O.3       1 <0>         0.0000
     28 O4         -1.7257   -1.5250    1.9487 O.3       1 <0>         0.0000
     29 S1          8.7829   -2.5196   -3.1079 S.3       1 <0>         0.0000
     30 S2         -0.9254   -0.7210    3.1917 S.3       1 <0>         0.0000
     31 Cl1         2.7434    0.8790   -3.6524 Cl        1 <0>         0.0000
     32 Cl2        -5.3218    1.4113   -1.7320 Cl        1 <0>         0.0000
     33 H1          3.3985   -3.0764   -1.8889 H         1 <0>         0.0000
     34 H2          6.0369   -1.6591    1.2018 H         1 <0>         0.0000
     35 H3          4.0337   -2.2810    2.4184 H         1 <0>         0.0000
     36 H4          2.5335   -0.8785   -1.3663 H         1 <0>         0.0000
     37 H5          5.3573   -3.9759   -3.1347 H         1 <0>         0.0000
     38 H6          7.9820   -2.5769   -0.0431 H         1 <0>         0.0000
     39 H7          2.1185   -1.2009    3.5733 H         1 <0>         0.0000
     40 H8          0.6051    0.1775   -0.1987 H         1 <0>         0.0000
     41 H9          7.3431   -0.2189   -2.4260 H         1 <0>         0.0000
     42 H10         5.8102   -2.1880   -5.9229 H         1 <0>         0.0000
     43 H11        -1.5768   -1.5386   -0.6131 H         1 <0>         0.0000
     44 H12        -3.7351    0.1197    2.7077 H         1 <0>         0.0000
     45 H13         5.1821    0.9687   -2.1388 H         1 <0>         0.0000
     46 H14         3.6350   -0.9765   -5.6537 H         1 <0>         0.0000
     47 H15        -3.0972   -0.3370   -2.2070 H         1 <0>         0.0000
     48 H16        -5.2511    1.3190    1.1318 H         1 <0>         0.0000
@<TRIPOS>BOND
     1    1    5 ar
     2    1   17 ar
     3    1   33 1
     4    2    6 ar
     5    2   17 ar
     6    2   34 1
     7    3    7 ar
     8    3   18 ar
     9    3   35 1
    10    4    8 ar
    11    4   18 ar
    12    4   36 1
    13    5   19 ar
    14    5   37 1
    15    6   19 ar
    16    6   38 1
    17    7   20 ar
    18    7   39 1
    19    8   20 ar
    20    8   40 1
    21    9   13 ar
    22    9   21 ar
    23    9   41 1
    24   10   14 ar
    25   10   21 ar
    26   10   42 1
    27   11   15 ar
    28   11   22 ar
    29   11   43 1
    30   12   16 ar
    31   12   22 ar
    32   12   44 1
    33   13   23 ar
    34   13   45 1
    35   14   23 ar
    36   14   46 1
    37   15   24 ar
    38   15   47 1
    39   16   24 ar
    40   16   48 1
    41   17   18 1
    42   19   25 1
    43   20   26 1
    44   21   27 1
    45   22   28 1
    46   23   31 1
    47   24   32 1
    48   25   29 1
    49   26   30 1
    50   27   29 1
    51   28   30 1
