@<TRIPOS>MOLECULE
*****
   48    51     0     0     0
SMALL
NO_CHARGES

@<TRIPOS>ATOM
      1 C1          5.0727   -1.9277   -0.9354 C.ar      1 <0>         0.0000
      2 C2          4.5826   -3.8940    0.3771 C.ar      1 <0>         0.0000
      3 C3          2.6333   -2.0510    1.8239 C.ar      1 <0>         0.0000
      4 C4          2.2639   -1.0597   -0.3456 C.ar      1 <0>         0.0000
      5 C5          6.2586   -2.5114   -1.3774 C.ar      1 <0>         0.0000
      6 C6          5.7632   -4.4923   -0.0641 C.ar      1 <0>         0.0000
      7 C7          1.5865   -1.2974    2.3547 C.ar      1 <0>         0.0000
      8 C8          1.2181   -0.2991    0.1734 C.ar      1 <0>         0.0000
      9 C9          9.3673   -0.9111   -0.4750 C.ar      1 <0>         0.0000
     10 C10        11.0486   -2.4705   -1.2785 C.ar      1 <0>         0.0000
     11 C11         2.8184    2.9698    0.0650 C.ar      1 <0>         0.0000
     12 C12         3.5194    1.5930    1.9363 C.ar      1 <0>         0.0000
     13 C13         9.9426    0.1094   -1.2349 C.ar      1 <0>         0.0000
     14 C14        11.6198   -1.4533   -2.0467 C.ar      1 <0>         0.0000
     15 C15         4.0200    2.6993   -0.5918 C.ar      1 <0>         0.0000
     16 C16         4.7151    1.3079    1.2735 C.ar      1 <0>         0.0000
     17 C17         4.2214   -2.6009   -0.0428 C.ar      1 <0>         0.0000
     18 C18         3.0134   -1.9191    0.4760 C.ar      1 <0>         0.0000
     19 C19         6.5966   -3.7887   -0.9345 C.ar      1 <0>         0.0000
     20 C20         0.9137   -0.3968    1.5297 C.ar      1 <0>         0.0000
     21 C21         9.9271   -2.1890   -0.4981 C.ar      1 <0>         0.0000
     22 C22         2.5697    2.4083    1.3194 C.ar      1 <0>         0.0000
     23 C23        11.0639   -0.1718   -2.0180 C.ar      1 <0>         0.0000
     24 C24         4.9568    1.8614    0.0159 C.ar      1 <0>         0.0000
     25 O1          7.7947   -4.3296   -1.4215 O.3       1 <0>         0.0000
     26 O2         -0.0445    0.4889    2.0516 O.3       1 <0>         0.0000
     27 O3          9.3215   -3.1363    0.3377 O.3       1 <0>         0.0000
     28 O4          1.3202    2.7328    1.8706 O.3       1 <0>         0.0000
     29 S1          8.9880   -4.6642   -0.2799 S.3       1 <0>         0.0000
     30 S2          0.6108    1.7159    3.0070 S.3       1 <0>         0.0000
     31 Cl1        11.7847    1.1043   -2.9866 Cl        1 <0>         0.0000
     32 Cl2         6.4622    1.4957   -0.8222 Cl        1 <0>         0.0000
     33 H1          4.8356   -0.9166   -1.2484 H         1 <0>         0.0000
     34 H2          3.9244   -4.4479    1.0408 H         1 <0>         0.0000
     35 H3          3.1993   -2.7063    2.4800 H         1 <0>         0.0000
     36 H4          2.5138   -0.9683   -1.3984 H         1 <0>         0.0000
     37 H5          6.9353   -1.9813   -2.0400 H         1 <0>         0.0000
     38 H6          6.0416   -5.4884    0.2669 H         1 <0>         0.0000
     39 H7          1.3291   -1.3620    3.4080 H         1 <0>         0.0000
     40 H8          0.6677    0.4020   -0.4459 H         1 <0>         0.0000
     41 H9          8.4863   -0.7255    0.1307 H         1 <0>         0.0000
     42 H10        11.4654   -3.4726   -1.2970 H         1 <0>         0.0000
     43 H11         2.0628    3.6016   -0.3917 H         1 <0>         0.0000
     44 H12         3.3205    1.1500    2.9049 H         1 <0>         0.0000
     45 H13         9.5197    1.1087   -1.2215 H         1 <0>         0.0000
     46 H14        12.4928   -1.6540   -2.6596 H         1 <0>         0.0000
     47 H15         4.2197    3.1271   -1.5691 H         1 <0>         0.0000
     48 H16         5.4479    0.6524    1.7326 H         1 <0>         0.0000
@<TRIPOS>BOND
     1    1    5 ar
     2    1   17 ar
     3    1   33 1
     4    2    6 ar
     5    2   17 ar
     6    2   34 1
     7    3    7 ar
     8    3   18 ar
     9    3   35 1
    10    4    8 ar
    11    4   18 ar
    12    4   36 1
    13    5   19 ar
    14    5   37 1
    15    6   19 ar
    16    6   38 1
    17    7   20 ar
    18    7   39 1
    19    8   20 ar
    20    8   40 1
    21    9   13 ar
    22    9   21 ar
    23    9   41 1
    24   10   14 ar
    25   10   21 ar
    26   10   42 1
    27   11   15 ar
    28   11   22 ar
    29   11   43 1
    30   12   16 ar
    31   12   22 ar
    32   12   44 1
    33   13   23 ar
    34   13   45 1
    35   14   23 ar
    36   14   46 1
    37   15   24 ar
    38   15   47 1
    39   16   24 ar
    40   16   48 1
    41   17   18 1
    42   19   25 1
    43   20   26 1
    44   21   27 1
    45   22   28 1
    46   23   31 1
    47   24   32 1
    48   25   29 1
    49   26   30 1
    50   27   29 1
    51   28   30 1
