@<TRIPOS>MOLECULE
*****
   48    51     0     0     0
SMALL
NO_CHARGES

@<TRIPOS>ATOM
      1 C1          3.5950   -4.5320   -1.9985 C.ar      1 <0>         0.0000
      2 C2          5.3167   -3.2014   -0.9633 C.ar      1 <0>         0.0000
      3 C3          3.0606   -2.3453    0.9250 C.ar      1 <0>         0.0000
      4 C4          1.7047   -2.3717   -1.0717 C.ar      1 <0>         0.0000
      5 C5          4.5585   -5.2774   -2.6757 C.ar      1 <0>         0.0000
      6 C6          6.2927   -3.9417   -1.6308 C.ar      1 <0>         0.0000
      7 C7          2.0364   -1.7014    1.6204 C.ar      1 <0>         0.0000
      8 C8          0.6760   -1.7259   -0.3890 C.ar      1 <0>         0.0000
      9 C9          6.0504   -7.3597   -0.0066 C.ar      1 <0>         0.0000
     10 C10         4.8603   -8.9108   -1.4491 C.ar      1 <0>         0.0000
     11 C11        -1.7808   -4.3454   -0.2564 C.ar      1 <0>         0.0000
     12 C12         0.0000   -4.5676    1.3769 C.ar      1 <0>         0.0000
     13 C13         5.0125   -7.4265    0.9250 C.ar      1 <0>         0.0000
     14 C14         3.8176   -8.9755   -0.5232 C.ar      1 <0>         0.0000
     15 C15        -1.1697   -5.3092   -1.0611 C.ar      1 <0>         0.0000
     16 C16         0.6226   -5.5166    0.5651 C.ar      1 <0>         0.0000
     17 C17         3.9509   -3.4829   -1.1340 C.ar      1 <0>         0.0000
     18 C18         2.9026   -2.7160   -0.4222 C.ar      1 <0>         0.0000
     19 C19         5.9068   -4.9777   -2.4829 C.ar      1 <0>         0.0000
     20 C20         0.8390   -1.4244    0.9618 C.ar      1 <0>         0.0000
     21 C21         5.9683   -8.1058   -1.1815 C.ar      1 <0>         0.0000
     22 C22        -1.1872   -3.9715    0.9508 C.ar      1 <0>         0.0000
     23 C23         3.9082   -8.2380    0.6593 C.ar      1 <0>         0.0000
     24 C24         0.0350   -5.8798   -0.6468 C.ar      1 <0>         0.0000
     25 O1          6.9609   -5.6518   -3.1220 O.3       1 <0>         0.0000
     26 O2         -0.2602   -0.8829    1.6506 O.3       1 <0>         0.0000
     27 O3          7.0505   -8.0498   -2.0694 O.3       1 <0>         0.0000
     28 O4         -1.8683   -2.9679    1.6588 O.3       1 <0>         0.0000
     29 S1          6.7754   -7.2651   -3.5362 S.3       1 <0>         0.0000
     30 S2         -1.0154   -1.9636    2.7039 S.3       1 <0>         0.0000
     31 Cl1         2.6125   -8.3461    1.8416 Cl        1 <0>         0.0000
     32 Cl2         0.8285   -7.0747   -1.6681 Cl        1 <0>         0.0000
     33 H1          2.5499   -4.7953   -2.1234 H         1 <0>         0.0000
     34 H2          5.6224   -2.3810   -0.3197 H         1 <0>         0.0000
     35 H3          3.9763   -2.6052    1.4490 H         1 <0>         0.0000
     36 H4          1.5719   -2.6203   -2.1203 H         1 <0>         0.0000
     37 H5          4.2612   -6.0989   -3.3181 H         1 <0>         0.0000
     38 H6          7.3497   -3.7259   -1.5065 H         1 <0>         0.0000
     39 H7          2.1431   -1.4565    2.6732 H         1 <0>         0.0000
     40 H8         -0.2649   -1.4911   -0.8763 H         1 <0>         0.0000
     41 H9          6.9174   -6.7304    0.1662 H         1 <0>         0.0000
     42 H10         4.8142   -9.4803   -2.3726 H         1 <0>         0.0000
     43 H11        -2.7054   -3.8662   -0.5633 H         1 <0>         0.0000
     44 H12         0.4635   -4.2698    2.3101 H         1 <0>         0.0000
     45 H13         5.0613   -6.8537    1.8455 H         1 <0>         0.0000
     46 H14         2.9474   -9.5950   -0.7127 H         1 <0>         0.0000
     47 H15        -1.6201   -5.6026   -2.0040 H         1 <0>         0.0000
     48 H16         1.5566   -5.9688    0.8763 H         1 <0>         0.0000
@<TRIPOS>BOND
     1    1    5 ar
     2    1   17 ar
     3    1   33 1
     4    2    6 ar
     5    2   17 ar
     6    2   34 1
     7    3    7 ar
     8    3   18 ar
     9    3   35 1
    10    4    8 ar
    11    4   18 ar
    12    4   36 1
    13    5   19 ar
    14    5   37 1
    15    6   19 ar
    16    6   38 1
    17    7   20 ar
    18    7   39 1
    19    8   20 ar
    20    8   40 1
    21    9   13 ar
    22    9   21 ar
    23    9   41 1
    24   10   14 ar
    25   10   21 ar
    26   10   42 1
    27   11   15 ar
    28   11   22 ar
    29   11   43 1
    30   12   16 ar
    31   12   22 ar
    32   12   44 1
    33   13   23 ar
    34   13   45 1
    35   14   23 ar
    36   14   46 1
    37   15   24 ar
    38   15   47 1
    39   16   24 ar
    40   16   48 1
    41   17   18 1
    42   19   25 1
    43   20   26 1
    44   21   27 1
    45   22   28 1
    46   23   31 1
    47   24   32 1
    48   25   29 1
    49   26   30 1
    50   27   29 1
    51   28   30 1
