@<TRIPOS>MOLECULE
*****
   25    25     0     0     0
SMALL
NO_CHARGES

@<TRIPOS>ATOM
      1 C1          4.6908    1.0932   -5.7964 C.2       1 <0>         0.0000
      2 C2          3.9353    0.4266   -4.8721 C.2       1 <0>         0.0000
      3 C3          5.8892   -0.5384   -4.4558 C.2       1 <0>         0.0000
      4 C4          1.6758    1.5507   -5.3979 C.2       1 <0>         0.0000
      5 C5         -0.4788    2.4884   -5.6721 C.3       1 <0>         0.0000
      6 C6          6.7425   -3.4404   -5.6135 C.3       1 <0>         0.0000
      7 C7          2.4693    0.5644   -4.5659 C.3       1 <0>         0.0000
      8 N1          4.6283   -0.5123   -4.1207 N.2       1 <0>         0.0000
      9 N2          6.8182   -1.3437   -3.7798 N.pl3     1 <0>         0.0000
     10 O1          2.0812    2.2238   -6.3260 O.2       1 <0>         0.0000
     11 O2          8.6036   -1.5578   -5.5773 O.2       1 <0>         0.0000
     12 O3          8.4971   -3.2097   -3.6193 O.2       1 <0>         0.0000
     13 O4          0.3957    1.5861   -4.9600 O.3       1 <0>         0.0000
     14 S1          6.3513    0.5753   -5.7227 S.3       1 <0>         0.0000
     15 S2          7.8539   -2.3945   -4.6455 S.o2      1 <0>         0.0000
     16 H1          4.3630    1.8300   -6.5143 H         1 <0>         0.0000
     17 H2         -1.4511    2.3888   -5.1904 H         1 <0>         0.0000
     18 H3         -0.5392    2.2071   -6.7258 H         1 <0>         0.0000
     19 H4         -0.1120    3.5142   -5.5932 H         1 <0>         0.0000
     20 H5          7.3757   -4.0927   -6.2174 H         1 <0>         0.0000
     21 H6          6.1274   -4.0244   -4.9281 H         1 <0>         0.0000
     22 H7          6.1332   -2.8016   -6.2539 H         1 <0>         0.0000
     23 H8          1.9829   -0.4136   -4.6586 H         1 <0>         0.0000
     24 H9          2.3430    0.8387   -3.5124 H         1 <0>         0.0000
     25 H10         6.4054   -1.8069   -2.9705 H         1 <0>         0.0000
@<TRIPOS>BOND
     1    1    2 2
     2    1   14 1
     3    1   16 1
     4    2    7 1
     5    2    8 1
     6    3    8 2
     7    3    9 1
     8    3   14 1
     9    4    7 1
    10    4   10 2
    11    4   13 1
    12    5   13 1
    13    5   17 1
    14    5   18 1
    15    5   19 1
    16    6   15 1
    17    6   20 1
    18    6   21 1
    19    6   22 1
    20    7   23 1
    21    7   24 1
    22    9   15 1
    23    9   25 1
    24   11   15 2
    25   12   15 2
