@<TRIPOS>MOLECULE
*****
   34    36     0     0     0
SMALL
NO_CHARGES

@<TRIPOS>ATOM
      1 C1         -0.0649   -2.1335    1.6541 C.ar      1 <0>         0.0000
      2 C2          0.6141   -1.0499    1.0429 C.ar      1 <0>         0.0000
      3 C3          2.5788   -5.2833   -0.9537 C.ar      1 <0>         0.0000
      4 C4          0.2610   -3.4247    1.3047 C.ar      1 <0>         0.0000
      5 C5          1.5974   -1.2773    0.1025 C.ar      1 <0>         0.0000
      6 C6          1.5990   -5.0274   -0.0155 C.ar      1 <0>         0.0000
      7 C7          3.2648   -4.2201   -1.5718 C.ar      1 <0>         0.0000
      8 C8          1.2706   -3.6927    0.3379 C.ar      1 <0>         0.0000
      9 C9          1.9634   -2.5989   -0.2857 C.ar      1 <0>         0.0000
     10 C10         2.9805   -2.8936   -1.2604 C.ar      1 <0>         0.0000
     11 C11         8.1701   -1.2362   -6.1243 C.ar      1 <0>         0.0000
     12 C12         7.5841   -2.4211   -5.6073 C.ar      1 <0>         0.0000
     13 C13         6.2558   -1.1731   -4.3103 C.ar      1 <0>         0.0000
     14 C14         3.7218   -1.8205   -1.9301 C.2       1 <0>         0.0000
     15 C15         9.2597   -1.2598   -7.1564 C.3       1 <0>         0.0000
     16 N1          7.7298   -0.0647   -5.6705 N.ar      1 <0>         0.0000
     17 N2          6.6275   -2.4064   -4.7014 N.ar      1 <0>         0.0000
     18 N3          6.7632   -0.0094   -4.7537 N.ar      1 <0>         0.0000
     19 N4          4.6347   -2.0826   -2.8032 N.2       1 <0>         0.0000
     20 N5          5.2651   -1.0294   -3.3682 N.pl3     1 <0>         0.0000
     21 O1          8.0222   -3.6138   -6.0600 O.3       1 <0>         0.0000
     22 H1         -0.8376   -1.9412    2.3936 H         1 <0>         0.0000
     23 H2          0.3573   -0.0302    1.3181 H         1 <0>         0.0000
     24 H3          2.8265   -6.3072   -1.2209 H         1 <0>         0.0000
     25 H4         -0.2521   -4.2656    1.7657 H         1 <0>         0.0000
     26 H5          2.0909   -0.4191   -0.3396 H         1 <0>         0.0000
     27 H6          1.0662   -5.8446    0.4649 H         1 <0>         0.0000
     28 H7          4.0348   -4.4233   -2.3090 H         1 <0>         0.0000
     29 H8          3.4876   -0.7821   -1.6764 H         1 <0>         0.0000
     30 H9          8.9262   -1.7629   -8.0704 H         1 <0>         0.0000
     31 H10         9.5484   -0.2348   -7.3958 H         1 <0>         0.0000
     32 H11        10.1367   -1.8051   -6.7916 H         1 <0>         0.0000
     33 H12         5.0346   -0.0669   -3.1192 H         1 <0>         0.0000
     34 H13         7.5039   -4.2962   -5.5911 H         1 <0>         0.0000
@<TRIPOS>BOND
     1    1    2 ar
     2    1    4 ar
     3    1   22 1
     4    2    5 ar
     5    2   23 1
     6    3    6 ar
     7    3    7 ar
     8    3   24 1
     9    4    8 ar
    10    4   25 1
    11    5    9 ar
    12    5   26 1
    13    6    8 ar
    14    6   27 1
    15    7   10 ar
    16    7   28 1
    17    8    9 ar
    18    9   10 ar
    19   10   14 1
    20   11   12 ar
    21   11   15 1
    22   11   16 ar
    23   12   17 ar
    24   12   21 1
    25   13   17 ar
    26   13   18 ar
    27   13   20 1
    28   14   19 2
    29   14   29 1
    30   15   30 1
    31   15   31 1
    32   15   32 1
    33   16   18 ar
    34   19   20 1
    35   20   33 1
    36   21   34 1
