@<TRIPOS>MOLECULE
*****
   47    49     0     0     0
SMALL
NO_CHARGES

@<TRIPOS>ATOM
      1 C1         -0.4142    3.3460   -1.2834 C.2       1 <0>         0.0000
      2 C2          0.2795   -1.4362   -1.2482 C.3       1 <0>         0.0000
      3 C3          0.6480    1.1051   -1.7042 C.3       1 <0>         0.0000
      4 C4         -0.4666   -2.2562   -0.1831 C.3       1 <0>         0.0000
      5 C5         -0.9069    4.9494   -3.0996 C.3       1 <0>         0.0000
      6 C6          1.2398    3.7449   -3.1706 C.3       1 <0>         0.0000
      7 C7         -0.1761    6.2329   -3.4923 C.3       1 <0>         0.0000
      8 C8          1.9293    5.0513   -3.5683 C.3       1 <0>         0.0000
      9 C9         -0.3450   -0.4148    1.5311 C.3       1 <0>         0.0000
     10 C10         0.5053    2.2944   -0.7530 C.3       1 <0>         0.0000
     11 C11         0.6328   -0.0501   -0.7335 C.3       1 <0>         0.0000
     12 C12        -0.3958    0.4307    0.2676 C.3       1 <0>         0.0000
     13 C13         1.6865    7.1612   -4.7083 C.3       1 <0>         0.0000
     14 C14        -2.0951   -3.1095    2.3071 C.3       1 <0>         0.0000
     15 N1         -0.0051    4.0053   -2.4416 N.am      1 <0>         0.0000
     16 N2          1.0094    5.9288   -4.3068 N.3       1 <0>         0.0000
     17 N3         -0.0421   -1.8471    1.1919 N.pl3     1 <0>         0.0000
     18 O1         -1.4679    3.5834   -0.6874 O.2       1 <0>         0.0000
     19 O2         -0.0233   -2.3612    3.7125 O.2       1 <0>         0.0000
     20 O3          0.2413   -4.2529    2.0580 O.2       1 <0>         0.0000
     21 O4         -0.0716    1.8074    0.4749 O.3       1 <0>         0.0000
     22 S1         -0.3302   -2.9791    2.4401 S.o2      1 <0>         0.0000
     23 H1          1.1970   -1.9729   -1.5559 H         1 <0>         0.0000
     24 H2         -0.3432   -1.3572   -2.1610 H         1 <0>         0.0000
     25 H3         -0.1867    1.0420   -2.4152 H         1 <0>         0.0000
     26 H4          1.5729    1.1554   -2.2898 H         1 <0>         0.0000
     27 H5         -1.5445   -2.1300   -0.2942 H         1 <0>         0.0000
     28 H6         -0.2523   -3.3205   -0.3037 H         1 <0>         0.0000
     29 H7         -1.7555    5.1908   -2.4512 H         1 <0>         0.0000
     30 H8         -1.3083    4.4472   -3.9886 H         1 <0>         0.0000
     31 H9          0.9724    3.1656   -4.0630 H         1 <0>         0.0000
     32 H10         1.9327    3.1366   -2.5860 H         1 <0>         0.0000
     33 H11        -0.8690    6.8591   -4.0673 H         1 <0>         0.0000
     34 H12         0.0986    6.7933   -2.5887 H         1 <0>         0.0000
     35 H13         2.3146    5.5518   -2.6700 H         1 <0>         0.0000
     36 H14         2.7914    4.8048   -4.1998 H         1 <0>         0.0000
     37 H15         0.4205   -0.0413    2.2313 H         1 <0>         0.0000
     38 H16        -1.2945   -0.3460    2.0856 H         1 <0>         0.0000
     39 H17         1.4819    2.7437   -0.5155 H         1 <0>         0.0000
     40 H18         1.6311   -0.0942   -0.2615 H         1 <0>         0.0000
     41 H19        -1.4111    0.3967   -0.1492 H         1 <0>         0.0000
     42 H20         0.9962    7.8077   -5.2564 H         1 <0>         0.0000
     43 H21         2.5397    6.9311   -5.3522 H         1 <0>         0.0000
     44 H22         2.0473    7.6985   -3.8271 H         1 <0>         0.0000
     45 H23        -2.4458   -3.8171    3.0600 H         1 <0>         0.0000
     46 H24        -2.5272   -2.1226    2.4792 H         1 <0>         0.0000
     47 H25        -2.3395   -3.4649    1.3050 H         1 <0>         0.0000
@<TRIPOS>BOND
     1    1   10 1
     2    1   15 am
     3    1   18 2
     4    2    4 1
     5    2   11 1
     6    2   23 1
     7    2   24 1
     8    3   10 1
     9    3   11 1
    10    3   25 1
    11    3   26 1
    12    4   17 1
    13    4   27 1
    14    4   28 1
    15    5    7 1
    16    5   15 1
    17    5   29 1
    18    5   30 1
    19    6    8 1
    20    6   15 1
    21    6   31 1
    22    6   32 1
    23    7   16 1
    24    7   33 1
    25    7   34 1
    26    8   16 1
    27    8   35 1
    28    8   36 1
    29    9   12 1
    30    9   17 1
    31    9   37 1
    32    9   38 1
    33   10   21 1
    34   10   39 1
    35   11   12 1
    36   11   40 1
    37   12   21 1
    38   12   41 1
    39   13   16 1
    40   13   42 1
    41   13   43 1
    42   13   44 1
    43   14   22 1
    44   14   45 1
    45   14   46 1
    46   14   47 1
    47   17   22 1
    48   19   22 2
    49   20   22 2
