@<TRIPOS>MOLECULE
*****
   22    22     0     0     0
SMALL
NO_CHARGES

@<TRIPOS>ATOM
      1 C1          2.0255   -0.7212   -0.3443 C.ar      1 <0>         0.0000
      2 C2          1.2097    0.0867    0.4383 C.ar      1 <0>         0.0000
      3 C3          2.3150   -0.7598    2.4163 C.ar      1 <0>         0.0000
      4 C4          3.1590   -1.5656    1.6291 C.ar      1 <0>         0.0000
      5 C5          2.9968   -1.5636    0.2283 C.ar      1 <0>         0.0000
      6 C6          1.3552    0.0529    1.8284 C.ar      1 <0>         0.0000
      7 C7          4.2137   -2.3320    2.3509 C.2       1 <0>         0.0000
      8 C8          4.2564   -3.5747   -0.3103 C.3       1 <0>         0.0000
      9 N1          5.4442   -1.9943    2.1475 N.2       1 <0>         0.0000
     10 N2          3.8083   -3.3675    3.1702 N.pl3     1 <0>         0.0000
     11 O1          6.2983   -2.8433    2.9262 O.3       1 <0>         0.0000
     12 O2          3.7031   -2.3007   -0.6732 O.3       1 <0>         0.0000
     13 Br1         0.2364    1.1545    2.9311 Br        1 <0>         0.0000
     14 H1          1.9211   -0.7308   -1.4250 H         1 <0>         0.0000
     15 H2          0.4635    0.7247   -0.0242 H         1 <0>         0.0000
     16 H3          2.4510   -0.7474    3.4936 H         1 <0>         0.0000
     17 H4          4.3119   -4.1418   -1.2418 H         1 <0>         0.0000
     18 H5          3.6099   -4.0997    0.3994 H         1 <0>         0.0000
     19 H6          5.2532   -3.4601    0.1186 H         1 <0>         0.0000
     20 H7          2.8463   -3.3448    3.4817 H         1 <0>         0.0000
     21 H8          4.4891   -3.6714    3.8576 H         1 <0>         0.0000
     22 H9          7.1699   -2.4463    2.7742 H         1 <0>         0.0000
@<TRIPOS>BOND
     1    1    2 ar
     2    1    5 ar
     3    1   14 1
     4    2    6 ar
     5    2   15 1
     6    3    4 ar
     7    3    6 ar
     8    3   16 1
     9    4    5 ar
    10    4    7 1
    11    5   12 1
    12    6   13 1
    13    7    9 2
    14    7   10 1
    15    8   12 1
    16    8   17 1
    17    8   18 1
    18    8   19 1
    19    9   11 1
    20   10   20 1
    21   10   21 1
    22   11   22 1
