@<TRIPOS>MOLECULE
*****
   49    52     0     0     0
SMALL
NO_CHARGES

@<TRIPOS>ATOM
      1 C1          3.9002   -4.1993   -5.5760 C.2       1 <0>         0.0000
      2 C2          2.5087   -3.0575   -3.9630 C.2       1 <0>         0.0000
      3 C3         -2.6558   -0.3799    0.0009 C.2       1 <0>         0.0000
      4 C4          1.6545   -0.1723   -1.7356 C.3       1 <0>         0.0000
      5 C5         -0.7751    0.6176   -1.4094 C.3       1 <0>         0.0000
      6 C6          2.5800   -0.9872   -2.6438 C.3       1 <0>         0.0000
      7 C7         -4.0366    1.6215   -0.7190 C.3       1 <0>         0.0000
      8 C8         -4.2963    0.6422    1.5026 C.3       1 <0>         0.0000
      9 C9         -5.5589    1.7006   -0.8411 C.3       1 <0>         0.0000
     10 C10        -5.8108    0.7369    1.3428 C.3       1 <0>         0.0000
     11 C11         0.6670   -2.6082   -2.4111 C.3       1 <0>         0.0000
     12 C12        -1.9551   -0.3806   -1.3637 C.3       1 <0>         0.0000
     13 C13         0.2508   -0.0697   -2.3384 C.3       1 <0>         0.0000
     14 C14        -0.3564   -1.4836   -2.5698 C.3       1 <0>         0.0000
     15 C15         4.9306   -4.6835   -6.5477 C.3       1 <0>         0.0000
     16 C16        -7.6206    2.0133    0.3731 C.3       1 <0>         0.0000
     17 N1          2.8107   -4.8380   -5.2810 N.2       1 <0>         0.0000
     18 N2          2.0102   -4.2073   -4.3620 N.2       1 <0>         0.0000
     19 N3          1.9130   -2.2173   -3.0745 N.pl3     1 <0>         0.0000
     20 N4         -3.6567    0.5427    0.1893 N.am      1 <0>         0.0000
     21 N5         -6.1738    1.8594    0.4746 N.3       1 <0>         0.0000
     22 O1         -2.2986   -1.1538    0.8846 O.2       1 <0>         0.0000
     23 O2         -1.3714   -1.6545   -1.5814 O.3       1 <0>         0.0000
     24 S1          4.0658   -2.6640   -4.7067 S.3       1 <0>         0.0000
     25 H1          1.5921   -0.6371   -0.7459 H         1 <0>         0.0000
     26 H2          2.0908    0.8214   -1.5900 H         1 <0>         0.0000
     27 H3         -1.0779    1.6053   -1.7667 H         1 <0>         0.0000
     28 H4         -0.3619    0.7346   -0.4032 H         1 <0>         0.0000
     29 H5          2.8374   -0.3927   -3.5314 H         1 <0>         0.0000
     30 H6          3.5201   -1.2182   -2.1223 H         1 <0>         0.0000
     31 H7         -3.6032    1.4693   -1.7058 H         1 <0>         0.0000
     32 H8         -3.6583    2.5765   -0.3277 H         1 <0>         0.0000
     33 H9         -3.9254    1.5373    2.0205 H         1 <0>         0.0000
     34 H10        -4.0164   -0.2364    2.0822 H         1 <0>         0.0000
     35 H11        -5.8225    2.5647   -1.4610 H         1 <0>         0.0000
     36 H12        -5.9249    0.7908   -1.3568 H         1 <0>         0.0000
     37 H13        -6.1935   -0.2228    0.9452 H         1 <0>         0.0000
     38 H14        -6.2647    0.8941    2.3270 H         1 <0>         0.0000
     39 H15         0.8344   -2.7964   -1.3440 H         1 <0>         0.0000
     40 H16         0.3158   -3.5330   -2.8639 H         1 <0>         0.0000
     41 H17        -2.6640   -0.1741   -2.1779 H         1 <0>         0.0000
     42 H18         0.3172    0.4561   -3.2970 H         1 <0>         0.0000
     43 H19        -0.8028   -1.5336   -3.5737 H         1 <0>         0.0000
     44 H20         5.0596   -3.9825   -7.3794 H         1 <0>         0.0000
     45 H21         5.9055   -4.8163   -6.0662 H         1 <0>         0.0000
     46 H22         4.6016   -5.6455   -6.9462 H         1 <0>         0.0000
     47 H23        -7.8571    2.8871   -0.2426 H         1 <0>         0.0000
     48 H24        -8.0434    2.1761    1.3695 H         1 <0>         0.0000
     49 H25        -8.1185    1.1317   -0.0727 H         1 <0>         0.0000
@<TRIPOS>BOND
     1    1   15 1
     2    1   17 2
     3    1   24 1
     4    2   18 2
     5    2   19 1
     6    2   24 1
     7    3   12 1
     8    3   20 am
     9    3   22 2
    10    4    6 1
    11    4   13 1
    12    4   25 1
    13    4   26 1
    14    5   12 1
    15    5   13 1
    16    5   27 1
    17    5   28 1
    18    6   19 1
    19    6   29 1
    20    6   30 1
    21    7    9 1
    22    7   20 1
    23    7   31 1
    24    7   32 1
    25    8   10 1
    26    8   20 1
    27    8   33 1
    28    8   34 1
    29    9   21 1
    30    9   35 1
    31    9   36 1
    32   10   21 1
    33   10   37 1
    34   10   38 1
    35   11   14 1
    36   11   19 1
    37   11   39 1
    38   11   40 1
    39   12   23 1
    40   12   41 1
    41   13   14 1
    42   13   42 1
    43   14   23 1
    44   14   43 1
    45   15   44 1
    46   15   45 1
    47   15   46 1
    48   16   21 1
    49   16   47 1
    50   16   48 1
    51   16   49 1
    52   17   18 1
