@<TRIPOS>MOLECULE
*****
   37    39     0     0     0
SMALL
NO_CHARGES

@<TRIPOS>ATOM
      1 C1         -1.2218    4.2386    3.2225 C.1       1 <0>         0.0000
      2 C2         -4.3352    0.7440    6.8353 C.ar      1 <0>         0.0000
      3 C3         -3.5117    2.9800    7.3351 C.ar      1 <0>         0.0000
      4 C4         -4.9156    0.6641    8.1042 C.ar      1 <0>         0.0000
      5 C5         -4.0931    2.9090    8.6038 C.ar      1 <0>         0.0000
      6 C6         -3.6190    1.8912    6.4530 C.ar      1 <0>         0.0000
      7 C7         -4.8076    1.7619    8.9601 C.ar      1 <0>         0.0000
      8 C8         -1.9271    1.9016    2.5753 C.2       1 <0>         0.0000
      9 C9         -1.7509    0.5749    0.8463 C.2       1 <0>         0.0000
     10 C10        -1.8633    2.9961    3.5438 C.2       1 <0>         0.0000
     11 C11        -1.4103    0.0522   -0.5096 C.3       1 <0>         0.0000
     12 C12        -1.9104    0.9497   -1.6604 C.3       1 <0>         0.0000
     13 C13        -1.0985    2.2360   -1.8716 C.3       1 <0>         0.0000
     14 C14        -1.0976    3.2353   -0.7052 C.3       1 <0>         0.0000
     15 C15        -0.4611    2.7147    0.5883 C.3       1 <0>         0.0000
     16 N1         -0.7050    5.2448    2.9364 N.1       1 <0>         0.0000
     17 N2         -2.6223    0.7894    2.8158 N.2       1 <0>         0.0000
     18 N3         -2.5153   -0.0382    1.7296 N.2       1 <0>         0.0000
     19 N4         -2.3987    2.9749    4.7486 N.2       1 <0>         0.0000
     20 N5         -1.3439    1.7986    1.3259 N.pl3     1 <0>         0.0000
     21 N6         -3.0589    1.9173    5.1680 N.pl3     1 <0>         0.0000
     22 I1         -5.0806    1.3570   11.2187 I         1 <0>         0.0000
     23 H1         -4.4319   -0.0916    6.1460 H         1 <0>         0.0000
     24 H2         -2.9715    3.8682    7.0270 H         1 <0>         0.0000
     25 H3         -5.4504   -0.2322    8.3999 H         1 <0>         0.0000
     26 H4         -3.9980    3.7452    9.2884 H         1 <0>         0.0000
     27 H5         -0.3247   -0.0899   -0.5977 H         1 <0>         0.0000
     28 H6         -1.8681   -0.9375   -0.5755 H         1 <0>         0.0000
     29 H7         -1.8711    0.3634   -2.5851 H         1 <0>         0.0000
     30 H8         -2.9660    1.1930   -1.4898 H         1 <0>         0.0000
     31 H9         -0.0587    1.9647   -2.1014 H         1 <0>         0.0000
     32 H10        -1.4825    2.7468   -2.7620 H         1 <0>         0.0000
     33 H11        -0.5312    4.1230   -1.0078 H         1 <0>         0.0000
     34 H12        -2.1161    3.5762   -0.4845 H         1 <0>         0.0000
     35 H13         0.4693    2.1780    0.3717 H         1 <0>         0.0000
     36 H14        -0.2083    3.5430    1.2422 H         1 <0>         0.0000
     37 H15        -3.1698    1.1158    4.5230 H         1 <0>         0.0000
@<TRIPOS>BOND
     1    1   10 1
     2    1   16 3
     3    2    4 ar
     4    2    6 ar
     5    2   23 1
     6    3    5 ar
     7    3    6 ar
     8    3   24 1
     9    4    7 ar
    10    4   25 1
    11    5    7 ar
    12    5   26 1
    13    6   21 1
    14    7   22 1
    15    8   10 1
    16    8   17 2
    17    8   20 1
    18    9   11 1
    19    9   18 2
    20    9   20 1
    21   10   19 2
    22   11   12 1
    23   11   27 1
    24   11   28 1
    25   12   13 1
    26   12   29 1
    27   12   30 1
    28   13   14 1
    29   13   31 1
    30   13   32 1
    31   14   15 1
    32   14   33 1
    33   14   34 1
    34   15   20 1
    35   15   35 1
    36   15   36 1
    37   17   18 1
    38   19   21 1
    39   21   37 1
