@<TRIPOS>MOLECULE
*****
   31    33     0     0     0
SMALL
NO_CHARGES

@<TRIPOS>ATOM
      1 C1          7.9556    4.3062   -1.5426 C.ar      1 <0>         0.0000
      2 C2          6.9317    5.1087   -2.1022 C.ar      1 <0>         0.0000
      3 C3          7.6338    3.1876   -0.7979 C.ar      1 <0>         0.0000
      4 C4          9.6310   -1.9927    1.4914 C.ar      1 <0>         0.0000
      5 C5          5.6039    4.7871   -1.9056 C.ar      1 <0>         0.0000
      6 C6         11.0152   -1.8541    1.4557 C.ar      1 <0>         0.0000
      7 C7          9.4089    0.3486    2.0406 C.ar      1 <0>         0.0000
      8 C8          3.6562    2.2977   -0.2284 C.ar      1 <0>         0.0000
      9 C9          6.2763    2.8313   -0.5879 C.ar      1 <0>         0.0000
     10 C10         8.8036   -0.8894    1.7651 C.ar      1 <0>         0.0000
     11 C11         5.2459    3.6457   -1.1423 C.ar      1 <0>         0.0000
     12 C12        11.6103   -0.6122    1.7058 C.ar      1 <0>         0.0000
     13 C13        10.7979    0.4905    2.0092 C.ar      1 <0>         0.0000
     14 C14         5.8162    1.6903    0.1648 C.ar      1 <0>         0.0000
     15 C15         7.3350   -1.0790    1.7917 C.2       1 <0>         0.0000
     16 N1          3.9176    3.3638   -0.9550 N.ar      1 <0>         0.0000
     17 N2          4.5339    1.4374    0.3473 N.ar      1 <0>         0.0000
     18 N3          6.4047   -0.3034    1.3480 N.2       1 <0>         0.0000
     19 N4          6.7604    0.8551    0.7347 N.pl3     1 <0>         0.0000
     20 Cl1        13.3455   -0.4761    1.6398 Cl        1 <0>         0.0000
     21 Cl2        11.4837    2.0563    2.3604 Cl        1 <0>         0.0000
     22 H1          8.9973    4.5730   -1.6970 H         1 <0>         0.0000
     23 H2          7.1977    5.9855   -2.6868 H         1 <0>         0.0000
     24 H3          8.4449    2.6010   -0.3736 H         1 <0>         0.0000
     25 H4          9.1855   -2.9639    1.2936 H         1 <0>         0.0000
     26 H5          4.8012    5.3900   -2.3193 H         1 <0>         0.0000
     27 H6         11.6494   -2.7060    1.2320 H         1 <0>         0.0000
     28 H7          8.8088    1.2048    2.3309 H         1 <0>         0.0000
     29 H8          2.6060    2.0619   -0.0616 H         1 <0>         0.0000
     30 H9          6.9685   -2.0133    2.2143 H         1 <0>         0.0000
     31 H10         7.7269    0.9827    0.4516 H         1 <0>         0.0000
@<TRIPOS>BOND
     1    1    2 ar
     2    1    3 ar
     3    1   22 1
     4    2    5 ar
     5    2   23 1
     6    3    9 ar
     7    3   24 1
     8    4    6 ar
     9    4   10 ar
    10    4   25 1
    11    5   11 ar
    12    5   26 1
    13    6   12 ar
    14    6   27 1
    15    7   10 ar
    16    7   13 ar
    17    7   28 1
    18    8   16 ar
    19    8   17 ar
    20    8   29 1
    21    9   11 ar
    22    9   14 ar
    23   10   15 1
    24   11   16 ar
    25   12   13 ar
    26   12   20 1
    27   13   21 1
    28   14   17 ar
    29   14   19 1
    30   15   18 2
    31   15   30 1
    32   18   19 1
    33   19   31 1
