@<TRIPOS>MOLECULE
*****
   28    29     0     0     0
SMALL
NO_CHARGES

@<TRIPOS>ATOM
      1 C1         -0.1130   -0.9652   -8.9283 C.ar      1 <0>         0.0000
      2 C2          0.9085   -0.5203   -8.0852 C.ar      1 <0>         0.0000
      3 C3         -1.4495   -0.8891   -8.5267 C.ar      1 <0>         0.0000
      4 C4         -0.7496    0.0622   -6.3705 C.ar      1 <0>         0.0000
      5 C5          0.5692   -0.0157   -6.8364 C.ar      1 <0>         0.0000
      6 C6         -1.7326   -0.3719   -7.2710 C.ar      1 <0>         0.0000
      7 C7          0.8521   -4.2222   -4.9402 C.2       1 <0>         0.0000
      8 C8          1.9463   -3.6468   -4.1344 C.2       1 <0>         0.0000
      9 C9          0.5083   -1.6995   -4.1044 C.2       1 <0>         0.0000
     10 C10        -1.1575    0.6050   -5.0607 C.2       1 <0>         0.0000
     11 C11         1.0192   -5.6275   -5.4341 C.3       1 <0>         0.0000
     12 N1         -0.2255   -3.5561   -5.2518 N.2       1 <0>         0.0000
     13 N2         -0.4279   -2.2691   -4.8110 N.2       1 <0>         0.0000
     14 N3         -0.6737    0.4530   -3.8778 N.2       1 <0>         0.0000
     15 N4          1.6789   -2.3307   -3.7561 N.am      1 <0>         0.0000
     16 N5          0.4026   -0.3893   -3.6477 N.pl3     1 <0>         0.0000
     17 O1          2.9947   -4.2058   -3.8318 O.2       1 <0>         0.0000
     18 F1          1.5674    0.4316   -6.0362 F         1 <0>         0.0000
     19 F2         -3.0239   -0.2998   -6.8743 F         1 <0>         0.0000
     20 H1          0.1336   -1.3679   -9.9060 H         1 <0>         0.0000
     21 H2          1.9520   -0.5513   -8.3812 H         1 <0>         0.0000
     22 H3         -2.2612   -1.2302   -9.1606 H         1 <0>         0.0000
     23 H4         -2.0264    1.2603   -5.0771 H         1 <0>         0.0000
     24 H5          1.1516   -6.3160   -4.5929 H         1 <0>         0.0000
     25 H6          1.9190   -5.7132   -6.0524 H         1 <0>         0.0000
     26 H7          0.1424   -5.9173   -6.0148 H         1 <0>         0.0000
     27 H8          2.4323   -1.8265   -3.2945 H         1 <0>         0.0000
     28 H9          0.7199   -0.2662   -2.6921 H         1 <0>         0.0000
@<TRIPOS>BOND
     1    1    3 ar
     2    1    2 ar
     3    1   20 1
     4    2    5 ar
     5    2   21 1
     6    3    6 ar
     7    3   22 1
     8    4    6 ar
     9    4    5 ar
    10    4   10 1
    11    5   18 1
    12    6   19 1
    13    7    8 1
    14    7   11 1
    15    7   12 2
    16    8   15 am
    17    8   17 2
    18    9   13 2
    19    9   15 1
    20    9   16 1
    21   10   14 2
    22   10   23 1
    23   11   24 1
    24   11   25 1
    25   11   26 1
    26   12   13 1
    27   14   16 1
    28   15   27 1
    29   16   28 1
