@<TRIPOS>MOLECULE
*****
   49    52     0     0     0
SMALL
NO_CHARGES

@<TRIPOS>ATOM
      1 C1         -0.0063   -9.0047   -1.7703 C.2       1 <0>         0.0000
      2 C2         -1.0330   -7.1625   -0.5871 C.2       1 <0>         0.0000
      3 C3         -0.4274   -1.9925    1.8234 C.2       1 <0>         0.0000
      4 C4         -3.0191   -4.4043    0.9319 C.3       1 <0>         0.0000
      5 C5         -2.3158   -3.1716    3.0975 C.3       1 <0>         0.0000
      6 C6         -2.8216   -5.6965    0.1419 C.3       1 <0>         0.0000
      7 C7          1.3376   -0.9969    0.4532 C.3       1 <0>         0.0000
      8 C8          1.9991   -2.1766    2.5074 C.3       1 <0>         0.0000
      9 C9          2.2349    0.1784    0.8700 C.3       1 <0>         0.0000
     10 C10         2.8841   -0.9712    2.8715 C.3       1 <0>         0.0000
     11 C11        -0.4588   -5.2590    0.8971 C.3       1 <0>         0.0000
     12 C12        -0.8204   -2.8462    3.0533 C.3       1 <0>         0.0000
     13 C13        -2.4379   -4.5196    2.3491 C.3       1 <0>         0.0000
     14 C14        -0.9824   -5.0622    2.3272 C.3       1 <0>         0.0000
     15 C15         0.8710  -10.0483   -2.3880 C.3       1 <0>         0.0000
     16 C16         4.4470   -0.8690    0.9896 C.3       1 <0>         0.0000
     17 N1         -1.2935   -8.9495   -1.9093 N.2       1 <0>         0.0000
     18 N2         -1.8954   -7.9069   -1.2460 N.2       1 <0>         0.0000
     19 N3         -1.3981   -6.0790    0.1453 N.pl3     1 <0>         0.0000
     20 N4          0.9003   -1.7372    1.6423 N.am      1 <0>         0.0000
     21 N5          3.3655   -0.2096    1.7183 N.3       1 <0>         0.0000
     22 O1         -1.2917   -1.5744    1.0430 O.2       1 <0>         0.0000
     23 O2         -0.1585   -4.1228    3.0369 O.3       1 <0>         0.0000
     24 S1          0.6447   -7.7052   -0.7542 S.3       1 <0>         0.0000
     25 H1         -2.5647   -3.5586    0.4095 H         1 <0>         0.0000
     26 H2         -4.0920   -4.1947    0.9891 H         1 <0>         0.0000
     27 H3         -2.6213   -3.2841    4.1409 H         1 <0>         0.0000
     28 H4         -2.9124   -2.3839    2.6368 H         1 <0>         0.0000
     29 H5         -3.4081   -6.5162    0.5752 H         1 <0>         0.0000
     30 H6         -3.1579   -5.5830   -0.8938 H         1 <0>         0.0000
     31 H7          0.4497   -0.6466   -0.0722 H         1 <0>         0.0000
     32 H8          1.8801   -1.6837   -0.2110 H         1 <0>         0.0000
     33 H9          2.5825   -2.9414    1.9778 H         1 <0>         0.0000
     34 H10         1.6147   -2.6479    3.4082 H         1 <0>         0.0000
     35 H11         2.6155    0.6874   -0.0216 H         1 <0>         0.0000
     36 H12         1.6244    0.8996    1.4275 H         1 <0>         0.0000
     37 H13         2.2995   -0.2914    3.5049 H         1 <0>         0.0000
     38 H14         3.7434   -1.3129    3.4584 H         1 <0>         0.0000
     39 H15        -0.3057   -4.2867    0.4125 H         1 <0>         0.0000
     40 H16         0.5120   -5.7550    0.9406 H         1 <0>         0.0000
     41 H17        -0.4910   -2.3331    3.9623 H         1 <0>         0.0000
     42 H18        -3.0650   -5.2091    2.9226 H         1 <0>         0.0000
     43 H19        -0.9005   -6.0130    2.8617 H         1 <0>         0.0000
     44 H20         1.6180   -9.6024   -3.0536 H         1 <0>         0.0000
     45 H21         1.4037  -10.6271   -1.6257 H         1 <0>         0.0000
     46 H22         0.2421  -10.7263   -2.9688 H         1 <0>         0.0000
     47 H23         4.8050   -0.2013    0.1993 H         1 <0>         0.0000
     48 H24         4.1796   -1.8313    0.5199 H         1 <0>         0.0000
     49 H25         5.2810   -1.0530    1.6746 H         1 <0>         0.0000
@<TRIPOS>BOND
     1    1   15 1
     2    1   17 2
     3    1   24 1
     4    2   18 2
     5    2   19 1
     6    2   24 1
     7    3   12 1
     8    3   20 am
     9    3   22 2
    10    4    6 1
    11    4   13 1
    12    4   25 1
    13    4   26 1
    14    5   12 1
    15    5   13 1
    16    5   27 1
    17    5   28 1
    18    6   19 1
    19    6   29 1
    20    6   30 1
    21    7    9 1
    22    7   20 1
    23    7   31 1
    24    7   32 1
    25    8   10 1
    26    8   20 1
    27    8   33 1
    28    8   34 1
    29    9   21 1
    30    9   35 1
    31    9   36 1
    32   10   21 1
    33   10   37 1
    34   10   38 1
    35   11   14 1
    36   11   19 1
    37   11   39 1
    38   11   40 1
    39   12   23 1
    40   12   41 1
    41   13   14 1
    42   13   42 1
    43   14   23 1
    44   14   43 1
    45   15   44 1
    46   15   45 1
    47   15   46 1
    48   16   21 1
    49   16   47 1
    50   16   48 1
    51   16   49 1
    52   17   18 1
