@<TRIPOS>MOLECULE
*****
   35    37     0     0     0
SMALL
NO_CHARGES

@<TRIPOS>ATOM
      1 C1          0.7670   -0.0799   -1.3566 C.ar      1 <0>         0.0000
      2 C2         -0.2492   -0.9873   -1.0093 C.ar      1 <0>         0.0000
      3 C3         -4.0543   -3.3849   -5.1193 C.ar      1 <0>         0.0000
      4 C4         -3.7564   -2.6840   -7.4116 C.ar      1 <0>         0.0000
      5 C5          1.4555   -0.1991   -2.5653 C.ar      1 <0>         0.0000
      6 C6         -2.8715   -4.1212   -5.1761 C.ar      1 <0>         0.0000
      7 C7         -2.5731   -3.4174   -7.4920 C.ar      1 <0>         0.0000
      8 C8         -4.5122   -2.6559   -6.2280 C.ar      1 <0>         0.0000
      9 C9         -0.6157   -2.0439   -1.8473 C.ar      1 <0>         0.0000
     10 C10         0.0783   -2.1719   -3.0651 C.ar      1 <0>         0.0000
     11 C11         1.0959   -1.2518   -3.4089 C.ar      1 <0>         0.0000
     12 C12        -2.1429   -4.1249   -6.3668 C.ar      1 <0>         0.0000
     13 C13         0.6133   -3.0351   -5.0292 C.2       1 <0>         0.0000
     14 C14        -5.8089   -1.8855   -6.1612 C.3       1 <0>         0.0000
     15 C15        -1.7114   -3.0184   -1.4978 C.3       1 <0>         0.0000
     16 N1         -0.1657   -3.1675   -4.0065 N.2       1 <0>         0.0000
     17 N2          0.6107   -3.8708   -6.1315 N.pl3     1 <0>         0.0000
     18 O1         -0.3304   -5.3793   -7.8504 O.2       1 <0>         0.0000
     19 O2         -0.5937   -6.0317   -5.3910 O.2       1 <0>         0.0000
     20 S1          1.7606   -1.6729   -4.9855 S.3       1 <0>         0.0000
     21 S2         -0.6159   -5.0411   -6.4553 S.o2      1 <0>         0.0000
     22 H1          1.0215    0.7270   -0.6749 H         1 <0>         0.0000
     23 H2         -0.7656   -0.8652   -0.0602 H         1 <0>         0.0000
     24 H3         -4.6291   -3.3739   -4.1962 H         1 <0>         0.0000
     25 H4         -4.1005   -2.1310   -8.2822 H         1 <0>         0.0000
     26 H5          2.2395    0.5026   -2.8338 H         1 <0>         0.0000
     27 H6         -2.5066   -4.6764   -4.3204 H         1 <0>         0.0000
     28 H7         -1.9995   -3.4552   -8.4130 H         1 <0>         0.0000
     29 H8         -6.6510   -2.5237   -6.4549 H         1 <0>         0.0000
     30 H9         -6.0077   -1.5251   -5.1480 H         1 <0>         0.0000
     31 H10        -5.7982   -1.0245   -6.8354 H         1 <0>         0.0000
     32 H11        -2.5460   -2.9290   -2.2022 H         1 <0>         0.0000
     33 H12        -1.3526   -4.0505   -1.5591 H         1 <0>         0.0000
     34 H13        -2.0917   -2.8382   -0.4889 H         1 <0>         0.0000
     35 H14         1.0733   -3.5630   -6.9814 H         1 <0>         0.0000
@<TRIPOS>BOND
     1    1    2 ar
     2    1    5 ar
     3    1   22 1
     4    2    9 ar
     5    2   23 1
     6    3    6 ar
     7    3    8 ar
     8    3   24 1
     9    4    7 ar
    10    4    8 ar
    11    4   25 1
    12    5   11 ar
    13    5   26 1
    14    6   12 ar
    15    6   27 1
    16    7   12 ar
    17    7   28 1
    18    8   14 1
    19    9   10 ar
    20    9   15 1
    21   10   11 ar
    22   10   16 1
    23   11   20 1
    24   12   21 1
    25   13   16 2
    26   13   17 1
    27   13   20 1
    28   14   29 1
    29   14   30 1
    30   14   31 1
    31   15   32 1
    32   15   33 1
    33   15   34 1
    34   17   21 1
    35   17   35 1
    36   18   21 2
    37   19   21 2
