@<TRIPOS>MOLECULE
*****
   27    28     0     0     0
SMALL
NO_CHARGES

@<TRIPOS>ATOM
      1 C1         -1.2418   -6.9202   -3.7811 C.1       1 <0>         0.0000
      2 C2          1.9096    0.7666   -3.1551 C.ar      1 <0>         0.0000
      3 C3          3.5157    1.1483   -1.3887 C.ar      1 <0>         0.0000
      4 C4          1.4536    2.0794   -3.0287 C.ar      1 <0>         0.0000
      5 C5          3.0611    2.4585   -1.2432 C.ar      1 <0>         0.0000
      6 C6         -0.5731   -5.6910   -3.5034 C.ar      1 <0>         0.0000
      7 C7          2.9401    0.2760   -2.3302 C.ar      1 <0>         0.0000
      8 C8         -1.2904   -4.5254   -3.1399 C.ar      1 <0>         0.0000
      9 C9         -0.6004   -3.3468   -2.8823 C.ar      1 <0>         0.0000
     10 C10         2.0276    2.9130   -2.0666 C.ar      1 <0>         0.0000
     11 C11         0.8171   -3.3521   -2.9885 C.ar      1 <0>         0.0000
     12 C12         0.8293   -5.5623   -3.5777 C.ar      1 <0>         0.0000
     13 C13         3.4855   -1.0934   -2.4515 C.2       1 <0>         0.0000
     14 N1         -1.7924   -7.9222   -4.0067 N.1       1 <0>         0.0000
     15 N2          1.4915   -4.4533   -3.3359 N.ar      1 <0>         0.0000
     16 N3          2.8785   -2.2095   -2.6708 N.2       1 <0>         0.0000
     17 N4          1.5160   -2.1931   -2.7624 N.pl3     1 <0>         0.0000
     18 Cl1        -3.0130   -4.5937   -3.0230 Cl        1 <0>         0.0000
     19 Cl2        -1.4298   -1.8768   -2.4341 Cl        1 <0>         0.0000
     20 Cl3         1.7813   -6.9539   -4.0249 Cl        1 <0>         0.0000
     21 Br1         1.4032    4.7118   -1.8898 Br        1 <0>         0.0000
     22 H1          1.4884    0.1410   -3.9365 H         1 <0>         0.0000
     23 H2          4.3262    0.7941   -0.7563 H         1 <0>         0.0000
     24 H3          0.6682    2.4512   -3.6785 H         1 <0>         0.0000
     25 H4          3.5071    3.1182   -0.5060 H         1 <0>         0.0000
     26 H5          4.5609   -1.2050   -2.3190 H         1 <0>         0.0000
     27 H6          0.9923   -1.3875   -2.4271 H         1 <0>         0.0000
@<TRIPOS>BOND
     1    1    6 1
     2    1   14 3
     3    2    4 ar
     4    2    7 ar
     5    2   22 1
     6    3    5 ar
     7    3    7 ar
     8    3   23 1
     9    4   10 ar
    10    4   24 1
    11    5   10 ar
    12    5   25 1
    13    6    8 ar
    14    6   12 ar
    15    7   13 1
    16    8    9 ar
    17    8   18 1
    18    9   11 ar
    19    9   19 1
    20   10   21 1
    21   11   15 ar
    22   11   17 1
    23   12   15 ar
    24   12   20 1
    25   13   16 2
    26   13   26 1
    27   16   17 1
    28   17   27 1
