@<TRIPOS>MOLECULE
*****
   35    37     0     0     0
SMALL
NO_CHARGES

@<TRIPOS>ATOM
      1 C1          0.9108   -1.7000   -1.1720 C.ar      1 <0>         0.0000
      2 C2          1.4447   -1.1235   -2.3400 C.ar      1 <0>         0.0000
      3 C3          0.5431   -6.8880   -7.3637 C.ar      1 <0>         0.0000
      4 C4          0.6660   -7.2409   -4.9781 C.ar      1 <0>         0.0000
      5 C5         -0.1826   -2.5634   -1.2299 C.ar      1 <0>         0.0000
      6 C6         -0.7527   -6.3908   -7.2346 C.ar      1 <0>         0.0000
      7 C7         -0.6316   -6.7505   -4.8267 C.ar      1 <0>         0.0000
      8 C8          1.2720   -7.3161   -6.2414 C.ar      1 <0>         0.0000
      9 C9          0.9116   -1.3841   -3.6039 C.ar      1 <0>         0.0000
     10 C10        -0.1954   -2.2545   -3.6673 C.ar      1 <0>         0.0000
     11 C11        -0.7304   -2.8265   -2.4891 C.ar      1 <0>         0.0000
     12 C12        -1.3257   -6.3250   -5.9615 C.ar      1 <0>         0.0000
     13 C13        -1.8101   -3.4516   -4.5922 C.2       1 <0>         0.0000
     14 C14         2.6643   -7.8781   -6.3988 C.3       1 <0>         0.0000
     15 C15         1.4773   -0.7801   -4.8635 C.3       1 <0>         0.0000
     16 N1         -0.8276   -2.6418   -4.8446 N.2       1 <0>         0.0000
     17 N2         -2.6610   -3.9187   -5.5987 N.pl3     1 <0>         0.0000
     18 O1         -3.5108   -6.0491   -4.5021 O.2       1 <0>         0.0000
     19 O2         -3.6693   -5.7057   -7.0434 O.2       1 <0>         0.0000
     20 S1         -2.0998   -3.8511   -2.8925 S.3       1 <0>         0.0000
     21 S2         -2.9513   -5.6094   -5.7761 S.o2      1 <0>         0.0000
     22 H1          1.3563   -1.4664   -0.2088 H         1 <0>         0.0000
     23 H2          2.2985   -0.4554   -2.2565 H         1 <0>         0.0000
     24 H3          0.9948   -6.9464   -8.3511 H         1 <0>         0.0000
     25 H4          1.2138   -7.5715   -4.0991 H         1 <0>         0.0000
     26 H5         -0.5951   -3.0059   -0.3279 H         1 <0>         0.0000
     27 H6         -1.3193   -6.0716   -8.1041 H         1 <0>         0.0000
     28 H7         -1.1031   -6.7050   -3.8510 H         1 <0>         0.0000
     29 H8          2.6229   -8.9488   -6.6320 H         1 <0>         0.0000
     30 H9          3.2036   -7.3859   -7.2132 H         1 <0>         0.0000
     31 H10         3.2484   -7.7625   -5.4819 H         1 <0>         0.0000
     32 H11         1.8105   -1.5605   -5.5555 H         1 <0>         0.0000
     33 H12         0.7182   -0.1940   -5.3917 H         1 <0>         0.0000
     34 H13         2.3257   -0.1284   -4.6390 H         1 <0>         0.0000
     35 H14        -2.4249   -3.5011   -6.4993 H         1 <0>         0.0000
@<TRIPOS>BOND
     1    1    2 ar
     2    1    5 ar
     3    1   22 1
     4    2    9 ar
     5    2   23 1
     6    3    6 ar
     7    3    8 ar
     8    3   24 1
     9    4    7 ar
    10    4    8 ar
    11    4   25 1
    12    5   11 ar
    13    5   26 1
    14    6   12 ar
    15    6   27 1
    16    7   12 ar
    17    7   28 1
    18    8   14 1
    19    9   10 ar
    20    9   15 1
    21   10   11 ar
    22   10   16 1
    23   11   20 1
    24   12   21 1
    25   13   16 2
    26   13   17 1
    27   13   20 1
    28   14   29 1
    29   14   30 1
    30   14   31 1
    31   15   32 1
    32   15   33 1
    33   15   34 1
    34   17   21 1
    35   17   35 1
    36   18   21 2
    37   19   21 2
