@<TRIPOS>MOLECULE
*****
   37    39     0     0     0
SMALL
NO_CHARGES

@<TRIPOS>ATOM
      1 C1          1.0373   -2.0523   -1.7075 C.ar      1 <0>         0.0000
      2 C2          1.8009   -1.1124   -1.0039 C.ar      1 <0>         0.0000
      3 C3          1.0846   -3.4148   -1.3863 C.ar      1 <0>         0.0000
      4 C4         -2.9422   -8.0399   -4.2796 C.ar      1 <0>         0.0000
      5 C5         -2.2405   -9.1515   -3.8141 C.ar      1 <0>         0.0000
      6 C6          2.6408   -1.5178    0.0430 C.ar      1 <0>         0.0000
      7 C7         -1.5969   -6.6188   -2.8965 C.ar      1 <0>         0.0000
      8 C8          1.9164   -3.8229   -0.3382 C.ar      1 <0>         0.0000
      9 C9         -0.8753   -7.7324   -2.4228 C.ar      1 <0>         0.0000
     10 C10        -2.6305   -6.7487   -3.8219 C.ar      1 <0>         0.0000
     11 C11        -1.2010   -9.0294   -2.8823 C.ar      1 <0>         0.0000
     12 C12         2.6736   -2.8685    0.3452 C.ar      1 <0>         0.0000
     13 C13         2.2038   -5.1716    0.2344 C.2       1 <0>         0.0000
     14 C14         0.2055   -7.5468   -1.4524 C.2       1 <0>         0.0000
     15 C15        -3.4157   -5.5479   -4.2964 C.3       1 <0>         0.0000
     16 C16        -0.4627  -10.2655   -2.4155 C.3       1 <0>         0.0000
     17 N1          3.0658   -5.2548    1.2119 N.2       1 <0>         0.0000
     18 N2          0.6522   -6.3769   -1.1446 N.2       1 <0>         0.0000
     19 N3          1.6372   -6.3289   -0.2063 N.pl3     1 <0>         0.0000
     20 O1          5.0784   -3.6285    1.2682 O.2       1 <0>         0.0000
     21 O2          3.2041   -3.3386    2.9401 O.2       1 <0>         0.0000
     22 S1          3.6563   -3.7125    1.6003 S.o2      1 <0>         0.0000
     23 H1          0.3969   -1.7200   -2.5199 H         1 <0>         0.0000
     24 H2          1.7461   -0.0612   -1.2730 H         1 <0>         0.0000
     25 H3          0.4983   -4.1401   -1.9335 H         1 <0>         0.0000
     26 H4         -3.7429   -8.1760   -5.0036 H         1 <0>         0.0000
     27 H5         -2.5026  -10.1393   -4.1857 H         1 <0>         0.0000
     28 H6          3.2449   -0.8035    0.5942 H         1 <0>         0.0000
     29 H7         -1.3389   -5.6365   -2.5119 H         1 <0>         0.0000
     30 H8          0.6302   -8.4400   -0.9815 H         1 <0>         0.0000
     31 H9         -4.3829   -5.4850   -3.7837 H         1 <0>         0.0000
     32 H10        -2.8777   -4.6158   -4.1022 H         1 <0>         0.0000
     33 H11        -3.6190   -5.6043   -5.3705 H         1 <0>         0.0000
     34 H12         0.6080  -10.2137   -2.6420 H         1 <0>         0.0000
     35 H13        -0.5640  -10.4203   -1.3350 H         1 <0>         0.0000
     36 H14        -0.8584  -11.1563   -2.9088 H         1 <0>         0.0000
     37 H15         1.9457   -7.1790    0.2700 H         1 <0>         0.0000
@<TRIPOS>BOND
     1    1    2 ar
     2    1    3 ar
     3    1   23 1
     4    2    6 ar
     5    2   24 1
     6    3    8 ar
     7    3   25 1
     8    4    5 ar
     9    4   10 ar
    10    4   26 1
    11    5   11 ar
    12    5   27 1
    13    6   12 ar
    14    6   28 1
    15    7    9 ar
    16    7   10 ar
    17    7   29 1
    18    8   12 ar
    19    8   13 1
    20    9   11 ar
    21    9   14 1
    22   10   15 1
    23   11   16 1
    24   12   22 1
    25   13   17 2
    26   13   19 1
    27   14   18 2
    28   14   30 1
    29   15   31 1
    30   15   32 1
    31   15   33 1
    32   16   34 1
    33   16   35 1
    34   16   36 1
    35   17   22 1
    36   18   19 1
    37   19   37 1
    38   20   22 2
    39   21   22 2
