@<TRIPOS>MOLECULE
*****
   30    31     0     0     0
SMALL
NO_CHARGES

@<TRIPOS>ATOM
      1 C1         -3.7441   -3.5002   -0.6435 C.ar      1 <0>         0.0000
      2 C2         -3.2926   -2.1954   -0.4632 C.ar      1 <0>         0.0000
      3 C3         -2.8849   -4.5090   -1.0933 C.ar      1 <0>         0.0000
      4 C4         -1.0725   -2.8708   -1.1903 C.ar      1 <0>         0.0000
      5 C5          3.6195    1.3553   -1.8840 C.2       1 <0>         0.0000
      6 C6          1.2986    1.6257   -1.1547 C.2       1 <0>         0.0000
      7 C7         -1.9498   -1.8717   -0.7361 C.ar      1 <0>         0.0000
      8 C8          2.3443    0.7989   -1.5611 C.2       1 <0>         0.0000
      9 C9         -1.5583   -4.1666   -1.3578 C.ar      1 <0>         0.0000
     10 C10         3.7944    2.6985   -1.7893 C.2       1 <0>         0.0000
     11 C11         1.5057    3.0559   -1.0607 C.2       1 <0>         0.0000
     12 C12        -0.0153    1.1244   -0.8128 C.2       1 <0>         0.0000
     13 C13         5.0562    3.4408   -2.0883 C.3       1 <0>         0.0000
     14 N1         -0.2861   -0.1433   -0.8801 N.2       1 <0>         0.0000
     15 N2         -1.5254   -0.5625   -0.5230 N.pl3     1 <0>         0.0000
     16 O1          0.6884    3.8908   -0.7235 O.2       1 <0>         0.0000
     17 O2          2.7929    3.5231   -1.3971 O.3       1 <0>         0.0000
     18 O3          2.2128   -0.5266   -1.6672 O.3       1 <0>         0.0000
     19 Cl1        -0.4511   -5.4073   -1.9267 Cl        1 <0>         0.0000
     20 H1         -4.7825   -3.7393   -0.4312 H         1 <0>         0.0000
     21 H2         -3.9749   -1.4256   -0.1099 H         1 <0>         0.0000
     22 H3         -3.2323   -5.5265   -1.2348 H         1 <0>         0.0000
     23 H4         -0.0369   -2.6470   -1.4083 H         1 <0>         0.0000
     24 H5          4.4268    0.7055   -2.1987 H         1 <0>         0.0000
     25 H6         -0.7588    1.8614   -0.4960 H         1 <0>         0.0000
     26 H7          4.8828    4.1746   -2.8825 H         1 <0>         0.0000
     27 H8          5.8448    2.7543   -2.4011 H         1 <0>         0.0000
     28 H9          5.3893    3.9907   -1.2019 H         1 <0>         0.0000
     29 H10        -2.2338    0.1441   -0.3379 H         1 <0>         0.0000
     30 H11         1.2779   -0.7568   -1.4098 H         1 <0>         0.0000
@<TRIPOS>BOND
     1    1    2 ar
     2    1    3 ar
     3    1   20 1
     4    2    7 ar
     5    2   21 1
     6    3    9 ar
     7    3   22 1
     8    4    7 ar
     9    4    9 ar
    10    4   23 1
    11    5    8 1
    12    5   10 2
    13    5   24 1
    14    6    8 2
    15    6   11 1
    16    6   12 1
    17    7   15 1
    18    8   18 1
    19    9   19 1
    20   10   13 1
    21   10   17 1
    22   11   16 2
    23   11   17 1
    24   12   14 2
    25   12   25 1
    26   13   26 1
    27   13   27 1
    28   13   28 1
    29   14   15 1
    30   15   29 1
    31   18   30 1
