@<TRIPOS>MOLECULE
*****
   40    43     0     0     0
SMALL
NO_CHARGES

@<TRIPOS>ATOM
      1 C1          1.1630   -0.7761   -1.6780 C.ar      1 <0>         0.0000
      2 C2          0.1020   -1.1454   -2.5118 C.ar      1 <0>         0.0000
      3 C3          1.6922   -1.7032   -0.7784 C.ar      1 <0>         0.0000
      4 C4         -0.4148   -2.4386   -2.4335 C.ar      1 <0>         0.0000
      5 C5          2.6201   -3.3485   -4.1217 C.ar      1 <0>         0.0000
      6 C6          2.3849   -4.5588   -3.4688 C.ar      1 <0>         0.0000
      7 C7          0.4768   -5.0896   -4.9083 C.ar      1 <0>         0.0000
      8 C8          1.1861   -3.0079   -0.6980 C.ar      1 <0>         0.0000
      9 C9          0.1225   -3.3726   -1.5410 C.ar      1 <0>         0.0000
     10 C10         1.7732   -3.0121   -5.1792 C.ar      1 <0>         0.0000
     11 C11         1.3237   -5.4123   -3.8389 C.ar      1 <0>         0.0000
     12 C12         0.7417   -3.8884   -5.5491 C.ar      1 <0>         0.0000
     13 C13         0.7173   -2.1018   -6.8027 C.2       1 <0>         0.0000
     14 C14         1.2745   -6.6417   -1.7017 C.2       1 <0>         0.0000
     15 C15         1.8404   -4.0180    0.2308 C.3       1 <0>         0.0000
     16 C16        -0.4215   -4.7881   -1.5003 C.3       1 <0>         0.0000
     17 C17         1.0480   -5.3284    0.3499 C.3       1 <0>         0.0000
     18 C18         0.1905   -1.2380   -7.8921 C.3       1 <0>         0.0000
     19 N1          1.7185   -1.8829   -6.0087 N.2       1 <0>         0.0000
     20 N2          0.5608   -5.7229   -0.9690 N.am      1 <0>         0.0000
     21 N3          1.0656   -6.6212   -3.0994 N.am      1 <0>         0.0000
     22 O1          2.0160   -7.4781   -1.1825 O.2       1 <0>         0.0000
     23 O2          0.0587   -3.3063   -6.5957 O.3       1 <0>         0.0000
     24 H1          1.5800    0.2260   -1.7351 H         1 <0>         0.0000
     25 H2         -0.3041   -0.4371   -3.2289 H         1 <0>         0.0000
     26 H3          2.5221   -1.4161   -0.1349 H         1 <0>         0.0000
     27 H4         -1.2255   -2.7383   -3.0947 H         1 <0>         0.0000
     28 H5          3.4193   -2.6840   -3.8103 H         1 <0>         0.0000
     29 H6          3.0235   -4.8562   -2.6430 H         1 <0>         0.0000
     30 H7         -0.3520   -5.7350   -5.1806 H         1 <0>         0.0000
     31 H8          2.8426   -4.2498   -0.1519 H         1 <0>         0.0000
     32 H9          1.9841   -3.5785    1.2249 H         1 <0>         0.0000
     33 H10        -1.3033   -4.8282   -0.8444 H         1 <0>         0.0000
     34 H11        -0.7509   -5.1109   -2.4850 H         1 <0>         0.0000
     35 H12         1.6614   -6.1332    0.7531 H         1 <0>         0.0000
     36 H13         0.1793   -5.1948    1.0055 H         1 <0>         0.0000
     37 H14         0.2322   -1.7606   -8.8531 H         1 <0>         0.0000
     38 H15        -0.8549   -0.9728   -7.7036 H         1 <0>         0.0000
     39 H16         0.7902   -0.3294   -7.9483 H         1 <0>         0.0000
     40 H17         1.5248   -7.4369   -3.4958 H         1 <0>         0.0000
@<TRIPOS>BOND
     1    1    2 ar
     2    1    3 ar
     3    1   24 1
     4    2    4 ar
     5    2   25 1
     6    3    8 ar
     7    3   26 1
     8    4    9 ar
     9    4   27 1
    10    5    6 ar
    11    5   10 ar
    12    5   28 1
    13    6   11 ar
    14    6   29 1
    15    7   11 ar
    16    7   12 ar
    17    7   30 1
    18    8    9 ar
    19    8   15 1
    20    9   16 1
    21   10   12 ar
    22   10   19 1
    23   11   21 1
    24   12   23 1
    25   13   18 1
    26   13   19 2
    27   13   23 1
    28   14   20 am
    29   14   21 am
    30   14   22 2
    31   15   17 1
    32   15   31 1
    33   15   32 1
    34   16   20 1
    35   16   33 1
    36   16   34 1
    37   17   20 1
    38   17   35 1
    39   17   36 1
    40   18   37 1
    41   18   38 1
    42   18   39 1
    43   21   40 1
