@<TRIPOS>MOLECULE
*****
   19    19     0     0     0
SMALL
NO_CHARGES

@<TRIPOS>ATOM
      1 C1          4.2724   -1.8041    2.5175 C.1       1 <0>         0.0000
      2 C2          1.5910   -1.0020   -0.0156 C.ar      1 <0>         0.0000
      3 C3          0.5491   -0.6420    0.8358 C.ar      1 <0>         0.0000
      4 C4          1.9928   -1.0593    2.7438 C.ar      1 <0>         0.0000
      5 C5          3.0407   -1.4214    1.8779 C.ar      1 <0>         0.0000
      6 C6          2.8417   -1.3939    0.4784 C.ar      1 <0>         0.0000
      7 C7          0.7632   -0.6749    2.2158 C.ar      1 <0>         0.0000
      8 C8          3.8748   -1.7557   -0.5441 C.2       1 <0>         0.0000
      9 C9          6.0974   -2.4784   -0.9091 C.3       1 <0>         0.0000
     10 N1          5.2096   -2.0923    3.1460 N.1       1 <0>         0.0000
     11 O1          3.6657   -1.7246   -1.7445 O.2       1 <0>         0.0000
     12 O2          5.0438   -2.1129    0.0078 O.3       1 <0>         0.0000
     13 Br1        -0.6500   -0.1860    3.4030 Br        1 <0>         0.0000
     14 H1          1.4521   -0.9857   -1.0915 H         1 <0>         0.0000
     15 H2         -0.4131   -0.3408    0.4351 H         1 <0>         0.0000
     16 H3          2.1526   -1.0830    3.8159 H         1 <0>         0.0000
     17 H4          6.9480   -2.7318   -0.2780 H         1 <0>         0.0000
     18 H5          6.3338   -1.6372   -1.5642 H         1 <0>         0.0000
     19 H6          5.7897   -3.3350   -1.5126 H         1 <0>         0.0000
@<TRIPOS>BOND
     1    1    5 1
     2    1   10 3
     3    2    3 ar
     4    2    6 ar
     5    2   14 1
     6    3    7 ar
     7    3   15 1
     8    4    5 ar
     9    4    7 ar
    10    4   16 1
    11    5    6 ar
    12    6    8 1
    13    7   13 1
    14    8   11 2
    15    8   12 1
    16    9   12 1
    17    9   17 1
    18    9   18 1
    19    9   19 1
