@<TRIPOS>MOLECULE
*****
   16    16     0     0     0
SMALL
NO_CHARGES

@<TRIPOS>ATOM
      1 C1          1.4989   -0.0029    1.9655 C.ar      1 <0>         0.0000
      2 C2          1.7812   -0.7264    3.1182 C.ar      1 <0>         0.0000
      3 C3          0.4030   -0.3816    1.1903 C.ar      1 <0>         0.0000
      4 C4         -0.3789   -1.4653    1.5811 C.ar      1 <0>         0.0000
      5 C5          0.9397   -1.8029    3.4352 C.ar      1 <0>         0.0000
      6 C6         -1.5822   -1.9387    0.7951 C.2       1 <0>         0.0000
      7 N1         -0.0976   -2.1580    2.6972 N.ar      1 <0>         0.0000
      8 N2          0.1266    0.4060   -0.0286 N.pl3     1 <0>         0.0000
      9 O1          0.7019    0.0468   -1.0532 O.3       1 <0>         0.0000
     10 O2         -1.9396   -1.4018   -0.2281 O.2       1 <0>         0.0000
     11 O3         -0.5925    1.3927    0.1098 O.2       1 <0>         0.0000
     12 O4         -2.2048   -2.9972    1.3370 O.3       1 <0>         0.0000
     13 Cl1         1.2542   -2.7399    4.8721 Cl        1 <0>         0.0000
     14 H1          2.1153    0.8408    1.6695 H         1 <0>         0.0000
     15 H2          2.6209   -0.4733    3.7553 H         1 <0>         0.0000
     16 H3         -1.7221   -3.2416    2.1570 H         1 <0>         0.0000
@<TRIPOS>BOND
     1    1    2 ar
     2    1    3 ar
     3    1   14 1
     4    2    5 ar
     5    2   15 1
     6    3    4 ar
     7    3    8 1
     8    4    6 1
     9    4    7 ar
    10    5    7 ar
    11    5   13 1
    12    6   10 2
    13    6   12 1
    14    8    9 1
    15    8   11 2
    16   12   16 1
