@<TRIPOS>MOLECULE
*****
   39    41     0     0     0
SMALL
NO_CHARGES

@<TRIPOS>ATOM
      1 C1         -1.8622   -1.6493   -1.5516 C.ar      1 <0>         0.0000
      2 C2         -2.1299   -0.2998   -1.7634 C.ar      1 <0>         0.0000
      3 C3          3.9275   -0.2513   -3.4750 C.ar      1 <0>         0.0000
      4 C4         -0.8223   -2.0241   -0.7024 C.ar      1 <0>         0.0000
      5 C5          4.4802    0.0245   -2.2253 C.ar      1 <0>         0.0000
      6 C6          2.4468   -1.8498   -2.4819 C.ar      1 <0>         0.0000
      7 C7         -1.3641    0.6956   -1.1361 C.ar      1 <0>         0.0000
      8 C8          2.8976   -1.1901   -3.6281 C.ar      1 <0>         0.0000
      9 C9         -0.0146   -1.0583   -0.0895 C.ar      1 <0>         0.0000
     10 C10        -0.2931    0.3166   -0.2875 C.ar      1 <0>         0.0000
     11 C11         4.0154   -0.6294   -1.0777 C.ar      1 <0>         0.0000
     12 C12         2.9892   -1.5795   -1.2196 C.ar      1 <0>         0.0000
     13 C13        -1.6698    2.1274   -1.3968 C.2       1 <0>         0.0000
     14 C14         1.4492   -0.3992    1.7445 C.3       1 <0>         0.0000
     15 C15         1.5940    0.9357    1.0339 C.3       1 <0>         0.0000
     16 C16         2.3152   -1.5058   -4.9861 C.3       1 <0>         0.0000
     17 N1          1.0400   -1.4453    0.7949 N.pl3     1 <0>         0.0000
     18 O1         -1.0270    3.0984   -1.0443 O.2       1 <0>         0.0000
     19 O2          1.5981   -3.6312   -0.3922 O.2       1 <0>         0.0000
     20 O3          3.2486   -2.6126    1.2516 O.2       1 <0>         0.0000
     21 O4          0.3867    1.2983    0.3514 O.3       1 <0>         0.0000
     22 O5          4.5069   -0.3396    0.1656 O.3       1 <0>         0.0000
     23 O6         -2.8161    2.2794   -2.1359 O.3       1 <0>         0.0000
     24 S1          2.2762   -2.4669    0.1752 S.o2      1 <0>         0.0000
     25 H1         -2.4726   -2.4113   -2.0266 H         1 <0>         0.0000
     26 H2         -2.9423    0.0031   -2.4127 H         1 <0>         0.0000
     27 H3          4.3041    0.2809   -4.3455 H         1 <0>         0.0000
     28 H4         -0.6141   -3.0687   -0.5064 H         1 <0>         0.0000
     29 H5          5.2741    0.7639   -2.1328 H         1 <0>         0.0000
     30 H6          1.6650   -2.5985   -2.5539 H         1 <0>         0.0000
     31 H7          2.3855   -0.6930    2.2176 H         1 <0>         0.0000
     32 H8          0.6735   -0.3384    2.5147 H         1 <0>         0.0000
     33 H9          1.7798    1.7456    1.7427 H         1 <0>         0.0000
     34 H10         2.4118    0.9043    0.3113 H         1 <0>         0.0000
     35 H11         2.8931   -2.2899   -5.4894 H         1 <0>         0.0000
     36 H12         1.2836   -1.8582   -4.9022 H         1 <0>         0.0000
     37 H13         2.3196   -0.6248   -5.6347 H         1 <0>         0.0000
     38 H14         5.2444    0.2850    0.0732 H         1 <0>         0.0000
     39 H15        -2.9095    3.2429   -2.2574 H         1 <0>         0.0000
@<TRIPOS>BOND
     1    1    2 ar
     2    1    4 ar
     3    1   25 1
     4    2    7 ar
     5    2   26 1
     6    3    5 ar
     7    3    8 ar
     8    3   27 1
     9    4    9 ar
    10    4   28 1
    11    5   11 ar
    12    5   29 1
    13    6    8 ar
    14    6   12 ar
    15    6   30 1
    16    7   10 ar
    17    7   13 1
    18    8   16 1
    19    9   10 ar
    20    9   17 1
    21   10   21 1
    22   11   12 ar
    23   11   22 1
    24   12   24 1
    25   13   18 2
    26   13   23 1
    27   14   15 1
    28   14   17 1
    29   14   31 1
    30   14   32 1
    31   15   21 1
    32   15   33 1
    33   15   34 1
    34   16   35 1
    35   16   36 1
    36   16   37 1
    37   17   24 1
    38   19   24 2
    39   20   24 2
    40   22   38 1
    41   23   39 1
