@<TRIPOS>MOLECULE
*****
   29    31     0     0     0
SMALL
NO_CHARGES

@<TRIPOS>ATOM
      1 C1          0.6201   -5.5827  -10.5329 C.ar      1 <0>         0.0000
      2 C2          2.4210    1.4939   -4.3282 C.ar      1 <0>         0.0000
      3 C3          2.0825    0.7676   -3.1719 C.ar      1 <0>         0.0000
      4 C4         -0.5060   -5.8805  -11.3069 C.ar      1 <0>         0.0000
      5 C5          0.4781   -5.3299   -9.1690 C.ar      1 <0>         0.0000
      6 C6          2.1958    0.9831   -5.6129 C.ar      1 <0>         0.0000
      7 C7          1.5009   -0.5077   -3.2547 C.ar      1 <0>         0.0000
      8 C8         -1.7694   -5.9326  -10.7127 C.ar      1 <0>         0.0000
      9 C9         -0.7850   -5.3655   -8.5439 C.ar      1 <0>         0.0000
     10 C10         1.6185   -0.2861   -5.7084 C.ar      1 <0>         0.0000
     11 C11         1.2919   -0.9880   -4.5360 C.ar      1 <0>         0.0000
     12 C12        -1.8961   -5.6794   -9.3463 C.ar      1 <0>         0.0000
     13 C13         0.7692   -2.1466   -6.2824 C.2       1 <0>         0.0000
     14 C14        -0.9145   -5.1481   -7.0836 C.2       1 <0>         0.0000
     15 N1          1.2633   -1.0665   -6.8175 N.2       1 <0>         0.0000
     16 N2         -0.3970   -4.2084   -6.3695 N.2       1 <0>         0.0000
     17 N3          0.3293   -3.2359   -6.9869 N.pl3     1 <0>         0.0000
     18 O1          0.7389   -2.2057   -4.9193 O.3       1 <0>         0.0000
     19 Br1        -3.6521   -5.7482   -8.5738 Br        1 <0>         0.0000
     20 H1          1.6061   -5.5541  -10.9879 H         1 <0>         0.0000
     21 H2          2.8686    2.4781   -4.2196 H         1 <0>         0.0000
     22 H3          2.2737    1.2000   -2.1940 H         1 <0>         0.0000
     23 H4         -0.4061   -6.0764  -12.3708 H         1 <0>         0.0000
     24 H5          1.3574   -5.1290   -8.5634 H         1 <0>         0.0000
     25 H6          2.4562    1.5466   -6.5038 H         1 <0>         0.0000
     26 H7          1.2332   -1.0799   -2.3720 H         1 <0>         0.0000
     27 H8         -2.6491   -6.1644  -11.3042 H         1 <0>         0.0000
     28 H9         -1.5161   -5.8557   -6.5187 H         1 <0>         0.0000
     29 H10         0.2871   -3.0990   -7.9960 H         1 <0>         0.0000
@<TRIPOS>BOND
     1    1    4 ar
     2    1    5 ar
     3    1   20 1
     4    2    3 ar
     5    2    6 ar
     6    2   21 1
     7    3    7 ar
     8    3   22 1
     9    4    8 ar
    10    4   23 1
    11    5    9 ar
    12    5   24 1
    13    6   10 ar
    14    6   25 1
    15    7   11 ar
    16    7   26 1
    17    8   12 ar
    18    8   27 1
    19    9   12 ar
    20    9   14 1
    21   10   11 ar
    22   10   15 1
    23   11   18 1
    24   12   19 1
    25   13   15 2
    26   13   17 1
    27   13   18 1
    28   14   16 2
    29   14   28 1
    30   16   17 1
    31   17   29 1
