@<TRIPOS>MOLECULE
*****
   49    52     0     0     0
SMALL
NO_CHARGES

@<TRIPOS>ATOM
      1 C1          5.7103    1.4022    0.6551 C.2       1 <0>         0.0000
      2 C2          3.3778    1.4904    0.0292 C.2       1 <0>         0.0000
      3 C3         -3.4673    0.0554   -0.9708 C.2       1 <0>         0.0000
      4 C4          0.5817    2.1620   -2.3678 C.3       1 <0>         0.0000
      5 C5         -1.4771    0.6148   -2.4957 C.3       1 <0>         0.0000
      6 C6          2.0309    2.2513   -1.8825 C.3       1 <0>         0.0000
      7 C7         -5.3822   -0.4100    0.4804 C.3       1 <0>         0.0000
      8 C8         -3.2915   -1.5938    0.9343 C.3       1 <0>         0.0000
      9 C9         -6.1275   -1.7414    0.5465 C.3       1 <0>         0.0000
     10 C10        -4.0740   -2.9057    0.9938 C.3       1 <0>         0.0000
     11 C11         0.9468    1.2273    0.1505 C.3       1 <0>         0.0000
     12 C12        -2.0000   -0.2246   -1.3288 C.3       1 <0>         0.0000
     13 C13         0.0342    0.7407   -2.2045 C.3       1 <0>         0.0000
     14 C14         0.1719    0.2515   -0.7331 C.3       1 <0>         0.0000
     15 C15         7.1997    1.4639    0.7901 C.3       1 <0>         0.0000
     16 C16        -6.1825   -3.9246    1.5807 C.3       1 <0>         0.0000
     17 N1          4.9107    0.9112    1.5504 N.2       1 <0>         0.0000
     18 N2          3.5808    0.9563    1.2143 N.2       1 <0>         0.0000
     19 N3          2.1594    1.6459   -0.5546 N.pl3     1 <0>         0.0000
     20 N4         -3.9916   -0.6320    0.0843 N.am      1 <0>         0.0000
     21 N5         -5.4451   -2.6743    1.4449 N.3       1 <0>         0.0000
     22 O1         -4.1274    0.8539   -1.6421 O.2       1 <0>         0.0000
     23 O2         -1.1580    0.1221   -0.2180 O.3       1 <0>         0.0000
     24 S1          4.8639    2.0056   -0.7804 S.3       1 <0>         0.0000
     25 H1         -0.0455    2.8650   -1.8092 H         1 <0>         0.0000
     26 H2          0.5416    2.4740   -3.4163 H         1 <0>         0.0000
     27 H3         -1.6890    0.1514   -3.4618 H         1 <0>         0.0000
     28 H4         -1.9721    1.5878   -2.4805 H         1 <0>         0.0000
     29 H5          2.6852    1.7167   -2.5855 H         1 <0>         0.0000
     30 H6          2.3634    3.2987   -1.8600 H         1 <0>         0.0000
     31 H7         -5.8403    0.2607   -0.2455 H         1 <0>         0.0000
     32 H8         -5.3990    0.0682    1.4683 H         1 <0>         0.0000
     33 H9         -3.2053   -1.1752    1.9450 H         1 <0>         0.0000
     34 H10        -2.2827   -1.7654    0.5677 H         1 <0>         0.0000
     35 H11        -7.1406   -1.5667    0.9247 H         1 <0>         0.0000
     36 H12        -6.2180   -2.1559   -0.4767 H         1 <0>         0.0000
     37 H13        -4.0503   -3.3864   -0.0051 H         1 <0>         0.0000
     38 H14        -3.5803   -3.5829    1.6996 H         1 <0>         0.0000
     39 H15         0.3139    2.0922    0.3819 H         1 <0>         0.0000
     40 H16         1.2426    0.7657    1.0905 H         1 <0>         0.0000
     41 H17        -1.8826   -1.2981   -1.5538 H         1 <0>         0.0000
     42 H18         0.6085    0.0713   -2.8542 H         1 <0>         0.0000
     43 H19         0.6664   -0.7300   -0.7097 H         1 <0>         0.0000
     44 H20         7.6986    0.8958   -0.0025 H         1 <0>         0.0000
     45 H21         7.5648    2.4955    0.7445 H         1 <0>         0.0000
     46 H22         7.4751    1.0358    1.7563 H         1 <0>         0.0000
     47 H23        -7.1862   -3.7203    1.9671 H         1 <0>         0.0000
     48 H24        -5.6713   -4.5791    2.2940 H         1 <0>         0.0000
     49 H25        -6.2864   -4.4714    0.6242 H         1 <0>         0.0000
@<TRIPOS>BOND
     1    1   15 1
     2    1   17 2
     3    1   24 1
     4    2   18 2
     5    2   19 1
     6    2   24 1
     7    3   12 1
     8    3   20 am
     9    3   22 2
    10    4    6 1
    11    4   13 1
    12    4   25 1
    13    4   26 1
    14    5   12 1
    15    5   13 1
    16    5   27 1
    17    5   28 1
    18    6   19 1
    19    6   29 1
    20    6   30 1
    21    7    9 1
    22    7   20 1
    23    7   31 1
    24    7   32 1
    25    8   10 1
    26    8   20 1
    27    8   33 1
    28    8   34 1
    29    9   21 1
    30    9   35 1
    31    9   36 1
    32   10   21 1
    33   10   37 1
    34   10   38 1
    35   11   14 1
    36   11   19 1
    37   11   39 1
    38   11   40 1
    39   12   23 1
    40   12   41 1
    41   13   14 1
    42   13   42 1
    43   14   23 1
    44   14   43 1
    45   15   44 1
    46   15   45 1
    47   15   46 1
    48   16   21 1
    49   16   47 1
    50   16   48 1
    51   16   49 1
    52   17   18 1
