@<TRIPOS>MOLECULE
*****
   49    52     0     0     0
SMALL
NO_CHARGES

@<TRIPOS>ATOM
      1 C1         -1.8450    1.1355    7.1109 C.2       1 <0>         0.0000
      2 C2         -0.6206   -0.7306    6.1808 C.2       1 <0>         0.0000
      3 C3          0.0203   -1.7845    1.0627 C.2       1 <0>         0.0000
      4 C4          1.7219   -3.3470    4.9850 C.3       1 <0>         0.0000
      5 C5          1.1885   -3.5853    2.4758 C.3       1 <0>         0.0000
      6 C6          1.2660   -1.9110    5.2318 C.3       1 <0>         0.0000
      7 C7         -1.0305    0.0290   -0.1928 C.3       1 <0>         0.0000
      8 C8         -2.4886   -1.6841    0.8073 C.3       1 <0>         0.0000
      9 C9         -1.8503   -0.0693   -1.4873 C.3       1 <0>         0.0000
     10 C10        -3.2726   -1.7349   -0.5153 C.3       1 <0>         0.0000
     11 C11        -0.9763   -3.0546    5.4336 C.3       1 <0>         0.0000
     12 C12        -0.1381   -3.0527    1.9209 C.3       1 <0>         0.0000
     13 C13         0.8634   -4.0469    3.9178 C.3       1 <0>         0.0000
     14 C14        -0.6348   -3.6857    4.0900 C.3       1 <0>         0.0000
     15 C15        -2.8213    2.1109    7.6906 C.3       1 <0>         0.0000
     16 C16        -4.0932    0.5615   -0.7280 C.3       1 <0>         0.0000
     17 N1         -0.6228    1.4227    6.7885 N.2       1 <0>         0.0000
     18 N2          0.0892    0.3744    6.2581 N.2       1 <0>         0.0000
     19 N3         -0.1228   -1.9078    5.7193 N.pl3     1 <0>         0.0000
     20 N4         -1.1183   -1.2332    0.5507 N.am      1 <0>         0.0000
     21 N5         -3.2404   -0.4885   -1.2818 N.3       1 <0>         0.0000
     22 O1          1.1414   -1.3159    0.8468 O.2       1 <0>         0.0000
     23 O2         -0.9400   -2.7323    3.0681 O.3       1 <0>         0.0000
     24 S1         -2.2756   -0.5529    6.7863 S.3       1 <0>         0.0000
     25 H1          2.7716   -3.3377    4.6748 H         1 <0>         0.0000
     26 H2          1.6764   -3.9039    5.9286 H         1 <0>         0.0000
     27 H3          1.5801   -4.3980    1.8598 H         1 <0>         0.0000
     28 H4          1.9271   -2.7826    2.4645 H         1 <0>         0.0000
     29 H5          1.8917   -1.4240    5.9834 H         1 <0>         0.0000
     30 H6          1.3377   -1.3090    4.3173 H         1 <0>         0.0000
     31 H7          0.0204    0.2222   -0.4059 H         1 <0>         0.0000
     32 H8         -1.4015    0.8432    0.4445 H         1 <0>         0.0000
     33 H9         -2.9649   -0.9964    1.5184 H         1 <0>         0.0000
     34 H10        -2.4842   -2.6648    1.2777 H         1 <0>         0.0000
     35 H11        -1.8420    0.8963   -2.0036 H         1 <0>         0.0000
     36 H12        -1.3711   -0.8022   -2.1483 H         1 <0>         0.0000
     37 H13        -2.8431   -2.5269   -1.1427 H         1 <0>         0.0000
     38 H14        -4.3152   -2.0025   -0.3121 H         1 <0>         0.0000
     39 H15        -2.0198   -2.7322    5.4039 H         1 <0>         0.0000
     40 H16        -0.8919   -3.8204    6.2183 H         1 <0>         0.0000
     41 H17        -0.6457   -3.8327    1.3307 H         1 <0>         0.0000
     42 H18         0.9900   -5.1291    4.0128 H         1 <0>         0.0000
     43 H19        -1.2642   -4.5790    3.9559 H         1 <0>         0.0000
     44 H20        -3.6938    2.2396    7.0409 H         1 <0>         0.0000
     45 H21        -3.1798    1.7851    8.6730 H         1 <0>         0.0000
     46 H22        -2.3198    3.0746    7.8008 H         1 <0>         0.0000
     47 H23        -4.0763    1.4264   -1.3989 H         1 <0>         0.0000
     48 H24        -3.8125    0.9129    0.2795 H         1 <0>         0.0000
     49 H25        -5.1245    0.1968   -0.6790 H         1 <0>         0.0000
@<TRIPOS>BOND
     1    1   15 1
     2    1   17 2
     3    1   24 1
     4    2   18 2
     5    2   19 1
     6    2   24 1
     7    3   12 1
     8    3   20 am
     9    3   22 2
    10    4    6 1
    11    4   13 1
    12    4   25 1
    13    4   26 1
    14    5   12 1
    15    5   13 1
    16    5   27 1
    17    5   28 1
    18    6   19 1
    19    6   29 1
    20    6   30 1
    21    7    9 1
    22    7   20 1
    23    7   31 1
    24    7   32 1
    25    8   10 1
    26    8   20 1
    27    8   33 1
    28    8   34 1
    29    9   21 1
    30    9   35 1
    31    9   36 1
    32   10   21 1
    33   10   37 1
    34   10   38 1
    35   11   14 1
    36   11   19 1
    37   11   39 1
    38   11   40 1
    39   12   23 1
    40   12   41 1
    41   13   14 1
    42   13   42 1
    43   14   23 1
    44   14   43 1
    45   15   44 1
    46   15   45 1
    47   15   46 1
    48   16   21 1
    49   16   47 1
    50   16   48 1
    51   16   49 1
    52   17   18 1
