@<TRIPOS>MOLECULE
*****
   49    52     0     0     0
SMALL
NO_CHARGES

@<TRIPOS>ATOM
      1 C1          6.5819    0.5683   -0.3250 C.2       1 <0>         0.0000
      2 C2          4.1636    0.5868   -0.3011 C.2       1 <0>         0.0000
      3 C3         -1.8509    0.3534    0.4223 C.2       1 <0>         0.0000
      4 C4          0.8392    2.2195   -0.8110 C.3       1 <0>         0.0000
      5 C5         -1.0960    0.9382   -1.9514 C.3       1 <0>         0.0000
      6 C6          2.3585    2.2199   -0.6154 C.3       1 <0>         0.0000
      7 C7         -4.1795    0.8321   -0.4492 C.3       1 <0>         0.0000
      8 C8         -3.5789    1.3288    1.8627 C.3       1 <0>         0.0000
      9 C9         -4.6641    2.2751   -0.6127 C.3       1 <0>         0.0000
     10 C10        -4.0662    2.7624    1.6639 C.3       1 <0>         0.0000
     11 C11         1.8429   -0.1822   -0.0735 C.3       1 <0>         0.0000
     12 C12        -1.4536   -0.1962   -0.9657 C.3       1 <0>         0.0000
     13 C13         0.4266    1.1038   -1.7805 C.3       1 <0>         0.0000
     14 C14         0.8827   -0.2867   -1.2653 C.3       1 <0>         0.0000
     15 C15         8.0540    0.8289   -0.4006 C.3       1 <0>         0.0000
     16 C16        -5.6692    4.1587    0.5111 C.3       1 <0>         0.0000
     17 N1          6.0524   -0.5905   -0.0823 N.2       1 <0>         0.0000
     18 N2          4.6806   -0.5994   -0.0598 N.2       1 <0>         0.0000
     19 N3          2.8350    0.8618   -0.3538 N.pl3     1 <0>         0.0000
     20 N4         -3.1499    0.7570    0.5851 N.am      1 <0>         0.0000
     21 N5         -5.1334    2.8108    0.6621 N.3       1 <0>         0.0000
     22 O1         -1.0215    0.4376    1.3303 O.2       1 <0>         0.0000
     23 O2         -0.3003   -1.0149   -0.8884 O.3       1 <0>         0.0000
     24 S1          5.3799    1.8473   -0.5680 S.3       1 <0>         0.0000
     25 H1          0.3375    2.0883    0.1505 H         1 <0>         0.0000
     26 H2          0.5400    3.1967   -1.2050 H         1 <0>         0.0000
     27 H3         -1.3314    0.6164   -2.9702 H         1 <0>         0.0000
     28 H4         -1.6414    1.8658   -1.7563 H         1 <0>         0.0000
     29 H5          2.8434    2.5986   -1.5264 H         1 <0>         0.0000
     30 H6          2.6376    2.8944    0.2069 H         1 <0>         0.0000
     31 H7         -5.0275    0.2008   -0.1539 H         1 <0>         0.0000
     32 H8         -3.8039    0.4672   -1.4029 H         1 <0>         0.0000
     33 H9         -2.7352    1.2922    2.5503 H         1 <0>         0.0000
     34 H10        -4.3964    0.7173    2.2647 H         1 <0>         0.0000
     35 H11        -3.8403    2.8866   -1.0336 H         1 <0>         0.0000
     36 H12        -5.4912    2.2949   -1.3310 H         1 <0>         0.0000
     37 H13        -4.4578    3.1450    2.6125 H         1 <0>         0.0000
     38 H14        -3.2079    3.3997    1.3739 H         1 <0>         0.0000
     39 H15         1.2710    0.0519    0.8281 H         1 <0>         0.0000
     40 H16         2.3721   -1.1196    0.0841 H         1 <0>         0.0000
     41 H17        -2.2545   -0.8340   -1.3493 H         1 <0>         0.0000
     42 H18         0.8920    1.3039   -2.7511 H         1 <0>         0.0000
     43 H19         1.3644   -0.8545   -2.0687 H         1 <0>         0.0000
     44 H20         8.3453    1.2078   -1.3863 H         1 <0>         0.0000
     45 H21         8.3714    1.5629    0.3481 H         1 <0>         0.0000
     46 H22         8.5791   -0.1107   -0.2160 H         1 <0>         0.0000
     47 H23        -6.4971    4.1493   -0.2051 H         1 <0>         0.0000
     48 H24        -4.9145    4.8861    0.1571 H         1 <0>         0.0000
     49 H25        -6.0565    4.5101    1.4725 H         1 <0>         0.0000
@<TRIPOS>BOND
     1    1   15 1
     2    1   17 2
     3    1   24 1
     4    2   18 2
     5    2   19 1
     6    2   24 1
     7    3   12 1
     8    3   20 am
     9    3   22 2
    10    4    6 1
    11    4   13 1
    12    4   25 1
    13    4   26 1
    14    5   12 1
    15    5   13 1
    16    5   27 1
    17    5   28 1
    18    6   19 1
    19    6   29 1
    20    6   30 1
    21    7    9 1
    22    7   20 1
    23    7   31 1
    24    7   32 1
    25    8   10 1
    26    8   20 1
    27    8   33 1
    28    8   34 1
    29    9   21 1
    30    9   35 1
    31    9   36 1
    32   10   21 1
    33   10   37 1
    34   10   38 1
    35   11   14 1
    36   11   19 1
    37   11   39 1
    38   11   40 1
    39   12   23 1
    40   12   41 1
    41   13   14 1
    42   13   42 1
    43   14   23 1
    44   14   43 1
    45   15   44 1
    46   15   45 1
    47   15   46 1
    48   16   21 1
    49   16   47 1
    50   16   48 1
    51   16   49 1
    52   17   18 1
