@<TRIPOS>MOLECULE
*****
   35    37     0     0     0
SMALL
NO_CHARGES

@<TRIPOS>ATOM
      1 C1         -1.2035   -4.1097    2.1743 C.ar      1 <0>         0.0000
      2 C2         -0.0878   -1.8954    1.1650 C.ar      1 <0>         0.0000
      3 C3         -0.7726    0.4885    4.2945 C.2       1 <0>         0.0000
      4 C4          0.7440   -1.0948    0.2962 C.2       1 <0>         0.0000
      5 C5         -1.3730    1.3230    5.2945 C.2       1 <0>         0.0000
      6 C6          0.0342   -0.3561    5.0115 C.2       1 <0>         0.0000
      7 C7         -1.2467   -1.7998    1.9892 C.ar      1 <0>         0.0000
      8 C8          0.4226   -3.1904    0.9994 C.ar      1 <0>         0.0000
      9 C9          0.6662    0.3552   -0.0821 C.3       1 <0>         0.0000
     10 C10        -2.3492    2.4440    5.1067 C.3       1 <0>         0.0000
     11 C11         0.9248   -1.4897    4.6307 C.3       1 <0>         0.0000
     12 C12        -3.1571   -0.6865    2.9897 C.3       1 <0>         0.0000
     13 C13        -0.9994    0.5016    2.8073 C.3       1 <0>         0.0000
     14 N1         -1.8041   -2.9391    2.4418 N.ar      1 <0>         0.0000
     15 N2         -0.0700   -4.3231    1.4978 N.ar      1 <0>         0.0000
     16 N3          1.6650   -1.8365   -0.2748 N.2       1 <0>         0.0000
     17 N4         -0.9562    1.0090    6.5028 N.2       1 <0>         0.0000
     18 N5         -1.8490   -0.6110    2.3339 N.pl3     1 <0>         0.0000
     19 O1         -0.0611   -0.0633    6.3261 O.3       1 <0>         0.0000
     20 O2          1.4906   -3.1673    0.1783 O.3       1 <0>         0.0000
     21 H1         -1.6967   -4.9936    2.5744 H         1 <0>         0.0000
     22 H2          1.1482    0.9959    0.6629 H         1 <0>         0.0000
     23 H3          1.1787    0.5071   -1.0340 H         1 <0>         0.0000
     24 H4         -0.3753    0.6723   -0.1807 H         1 <0>         0.0000
     25 H5         -3.2873    2.0805    4.6751 H         1 <0>         0.0000
     26 H6         -2.5691    2.9113    6.0685 H         1 <0>         0.0000
     27 H7         -1.9459    3.2069    4.4326 H         1 <0>         0.0000
     28 H8          1.3215   -1.3471    3.6230 H         1 <0>         0.0000
     29 H9          1.7588   -1.5707    5.3321 H         1 <0>         0.0000
     30 H10         0.3751   -2.4369    4.6417 H         1 <0>         0.0000
     31 H11        -3.6036    0.3113    2.9607 H         1 <0>         0.0000
     32 H12        -3.0867   -1.0207    4.0307 H         1 <0>         0.0000
     33 H13        -3.7978   -1.3811    2.4480 H         1 <0>         0.0000
     34 H14        -1.4689    1.4437    2.5087 H         1 <0>         0.0000
     35 H15        -0.0442    0.4456    2.2942 H         1 <0>         0.0000
@<TRIPOS>BOND
     1    1   14 ar
     2    1   15 ar
     3    1   21 1
     4    2    4 1
     5    2    7 ar
     6    2    8 ar
     7    3    5 1
     8    3    6 2
     9    3   13 1
    10    4    9 1
    11    4   16 2
    12    5   10 1
    13    5   17 2
    14    6   11 1
    15    6   19 1
    16    7   14 ar
    17    7   18 1
    18    8   15 ar
    19    8   20 1
    20    9   22 1
    21    9   23 1
    22    9   24 1
    23   10   25 1
    24   10   26 1
    25   10   27 1
    26   11   28 1
    27   11   29 1
    28   11   30 1
    29   12   18 1
    30   12   31 1
    31   12   32 1
    32   12   33 1
    33   13   18 1
    34   13   34 1
    35   13   35 1
    36   16   20 1
    37   17   19 1
