@<TRIPOS>MOLECULE
*****
   45    47     0     0     0
SMALL
NO_CHARGES

@<TRIPOS>ATOM
      1 C1          1.9047    2.4322    3.3454 C.2       1 <0>         0.0000
      2 C2         -0.1639    3.0668    3.8872 C.2       1 <0>         0.0000
      3 C3          0.5754    2.5021    2.8506 C.2       1 <0>         0.0000
      4 C4         -1.1904    2.2458    1.1772 C.2       1 <0>         0.0000
      5 C5         -1.4567   -0.1871   -1.5790 C.2       1 <0>         0.0000
      6 C6         -1.4441    1.8378   -0.2681 C.3       1 <0>         0.0000
      7 C7          1.6766   -0.0760   -1.1328 C.3       1 <0>         0.0000
      8 C8          2.3130   -1.3703   -0.5874 C.3       1 <0>         0.0000
      9 C9          1.0505    1.6283    0.5664 C.3       1 <0>         0.0000
     10 C10         0.5620   -0.8258    0.9379 C.3       1 <0>         0.0000
     11 C11         0.5726    0.3285   -0.1074 C.3       1 <0>         0.0000
     12 C12        -0.9246   -1.5484   -2.0021 C.3       1 <0>         0.0000
     13 C13         0.4256    3.7931    6.2280 C.3       1 <0>         0.0000
     14 C14         4.0101   -2.5673    2.0874 C.3       1 <0>         0.0000
     15 N1          1.9788    2.9179    4.5878 N.2       1 <0>         0.0000
     16 N2          0.7218    3.3008    4.8952 N.pl3     1 <0>         0.0000
     17 N3          0.1115    2.0957    1.5781 N.am      1 <0>         0.0000
     18 N4         -0.7663    0.5907   -0.6675 N.am      1 <0>         0.0000
     19 N5          1.8693   -1.5038    0.8239 N.pl3     1 <0>         0.0000
     20 O1         -2.0872    2.7034    1.8826 O.2       1 <0>         0.0000
     21 O2         -2.5172    0.2039   -2.0678 O.2       1 <0>         0.0000
     22 O3          2.3037   -0.8888    3.2572 O.2       1 <0>         0.0000
     23 O4          3.8966    0.0142    1.4965 O.2       1 <0>         0.0000
     24 S1          3.0249   -1.0665    1.9966 S.o2      1 <0>         0.0000
     25 H1          2.8004    2.0497    2.8754 H         1 <0>         0.0000
     26 H2         -1.2121    3.3056    3.9553 H         1 <0>         0.0000
     27 H3         -2.5148    1.7033   -0.3914 H         1 <0>         0.0000
     28 H4         -1.1459    2.6669   -0.9260 H         1 <0>         0.0000
     29 H5          2.4294    0.7138   -1.1900 H         1 <0>         0.0000
     30 H6          1.2767   -0.2108   -2.1364 H         1 <0>         0.0000
     31 H7          1.9639   -2.2539   -1.1289 H         1 <0>         0.0000
     32 H8          3.4017   -1.3474   -0.6503 H         1 <0>         0.0000
     33 H9          2.0190    1.4425    1.0223 H         1 <0>         0.0000
     34 H10         1.2031    2.3967   -0.2025 H         1 <0>         0.0000
     35 H11         0.3963   -0.4735    1.9561 H         1 <0>         0.0000
     36 H12        -0.2233   -1.5484    0.7082 H         1 <0>         0.0000
     37 H13        -1.7899   -2.2084   -2.0874 H         1 <0>         0.0000
     38 H14        -0.1957   -2.0055   -1.3379 H         1 <0>         0.0000
     39 H15        -0.4853   -1.4626   -3.0009 H         1 <0>         0.0000
     40 H16         0.3337    2.9637    6.9366 H         1 <0>         0.0000
     41 H17         1.2351    4.4508    6.5489 H         1 <0>         0.0000
     42 H18        -0.5111    4.3532    6.2030 H         1 <0>         0.0000
     43 H19         4.8130   -2.3644    2.7982 H         1 <0>         0.0000
     44 H20         3.3661   -3.3725    2.4394 H         1 <0>         0.0000
     45 H21         4.4235   -2.7895    1.1031 H         1 <0>         0.0000
@<TRIPOS>BOND
     1    1    3 1
     2    1   15 2
     3    1   25 1
     4    2    3 2
     5    2   16 1
     6    2   26 1
     7    3   17 1
     8    4    6 1
     9    4   17 am
    10    4   20 2
    11    5   12 1
    12    5   18 am
    13    5   21 2
    14    6   18 1
    15    6   27 1
    16    6   28 1
    17    7    8 1
    18    7   11 1
    19    7   29 1
    20    7   30 1
    21    8   19 1
    22    8   31 1
    23    8   32 1
    24    9   11 1
    25    9   17 1
    26    9   33 1
    27    9   34 1
    28   10   11 1
    29   10   19 1
    30   10   35 1
    31   10   36 1
    32   11   18 1
    33   12   37 1
    34   12   38 1
    35   12   39 1
    36   13   16 1
    37   13   40 1
    38   13   41 1
    39   13   42 1
    40   14   24 1
    41   14   43 1
    42   14   44 1
    43   14   45 1
    44   15   16 1
    45   19   24 1
    46   22   24 2
    47   23   24 2
