@<TRIPOS>MOLECULE
*****
   44    46     0     0     0
SMALL
NO_CHARGES

@<TRIPOS>ATOM
      1 C1          1.3363    1.3042   -3.2680 C.1       1 <0>         0.0000
      2 C2          0.8328    1.1683   -0.8890 C.2       1 <0>         0.0000
      3 C3          0.6108    0.7313   -2.1772 C.2       1 <0>         0.0000
      4 C4          0.1774    0.5930    0.2310 C.2       1 <0>         0.0000
      5 C5         -0.7646   -0.3913    0.0067 C.2       1 <0>         0.0000
      6 C6         -0.3439   -0.3395   -2.4490 C.2       1 <0>         0.0000
      7 C7          3.7859    2.6055    0.4107 C.2       1 <0>         0.0000
      8 C8          0.4505    1.1299    1.6088 C.2       1 <0>         0.0000
      9 C9          5.7157    0.4553    0.0289 C.3       1 <0>         0.0000
     10 C10         5.4227    0.9442    1.4460 C.3       1 <0>         0.0000
     11 C11         3.7013    2.1766    2.9043 C.3       1 <0>         0.0000
     12 C12         5.6591    1.6234   -0.9478 C.3       1 <0>         0.0000
     13 C13         2.1790    2.0145    3.1161 C.3       1 <0>         0.0000
     14 C14         2.9014    0.5063    1.3879 C.3       1 <0>         0.0000
     15 C15         4.0268    1.5666    1.5187 C.3       1 <0>         0.0000
     16 C16        -1.5980   -1.0513    1.0663 C.3       1 <0>         0.0000
     17 C17         4.2540    3.4456   -1.8355 C.3       1 <0>         0.0000
     18 N1          1.9806    1.7840   -4.1130 N.1       1 <0>         0.0000
     19 N2         -0.9811   -0.8036   -1.2775 N.am      1 <0>         0.0000
     20 N3          4.4820    2.4782   -0.7600 N.am      1 <0>         0.0000
     21 N4          1.7495    1.1343    2.0185 N.am      1 <0>         0.0000
     22 O1         -0.6212   -0.8316   -3.5379 O.2       1 <0>         0.0000
     23 O2          2.9053    3.4627    0.5597 O.2       1 <0>         0.0000
     24 O3         -0.4584    1.5815    2.3125 O.2       1 <0>         0.0000
     25 H1          1.5200    1.9918   -0.7184 H         1 <0>         0.0000
     26 H2          6.7069   -0.0053   -0.0313 H         1 <0>         0.0000
     27 H3          4.9897   -0.3116   -0.2632 H         1 <0>         0.0000
     28 H4          5.4959    0.1224    2.1678 H         1 <0>         0.0000
     29 H5          6.1704    1.6919    1.7405 H         1 <0>         0.0000
     30 H6          4.0014    3.2239    2.9622 H         1 <0>         0.0000
     31 H7          4.2563    1.6210    3.6672 H         1 <0>         0.0000
     32 H8          6.5637    2.2416   -0.8424 H         1 <0>         0.0000
     33 H9          5.6432    1.2579   -1.9800 H         1 <0>         0.0000
     34 H10         1.9424    1.5708    4.0889 H         1 <0>         0.0000
     35 H11         1.6393    2.9578    3.0294 H         1 <0>         0.0000
     36 H12         2.6934    0.1987    0.3654 H         1 <0>         0.0000
     37 H13         3.1977   -0.3924    1.9504 H         1 <0>         0.0000
     38 H14        -2.6265   -0.6770    1.0134 H         1 <0>         0.0000
     39 H15        -1.2220   -0.8241    2.0618 H         1 <0>         0.0000
     40 H16        -1.6214   -2.1367    0.9210 H         1 <0>         0.0000
     41 H17         5.1410    4.0780   -1.9684 H         1 <0>         0.0000
     42 H18         3.4051    4.0745   -1.5756 H         1 <0>         0.0000
     43 H19         4.0440    2.9210   -2.7718 H         1 <0>         0.0000
     44 H20        -1.6629   -1.5369   -1.4545 H         1 <0>         0.0000
@<TRIPOS>BOND
     1    1    3 1
     2    1   18 3
     3    2    3 2
     4    2    4 1
     5    2   25 1
     6    3    6 1
     7    4    5 2
     8    4    8 1
     9    5   16 1
    10    5   19 1
    11    6   19 am
    12    6   22 2
    13    7   15 1
    14    7   20 am
    15    7   23 2
    16    8   21 am
    17    8   24 2
    18    9   10 1
    19    9   12 1
    20    9   26 1
    21    9   27 1
    22   10   15 1
    23   10   28 1
    24   10   29 1
    25   11   13 1
    26   11   15 1
    27   11   30 1
    28   11   31 1
    29   12   20 1
    30   12   32 1
    31   12   33 1
    32   13   21 1
    33   13   34 1
    34   13   35 1
    35   14   15 1
    36   14   21 1
    37   14   36 1
    38   14   37 1
    39   16   38 1
    40   16   39 1
    41   16   40 1
    42   17   20 1
    43   17   41 1
    44   17   42 1
    45   17   43 1
    46   19   44 1
