@<TRIPOS>MOLECULE
*****
   49    52     0     0     0
SMALL
NO_CHARGES

@<TRIPOS>ATOM
      1 C1         -6.2031    5.7516   -5.2224 C.2       1 <0>         0.0000
      2 C2         -5.3325    3.8884   -3.9498 C.2       1 <0>         0.0000
      3 C3         -3.1406   -0.3471   -0.2054 C.2       1 <0>         0.0000
      4 C4         -5.3228    0.3118   -2.8621 C.3       1 <0>         0.0000
      5 C5         -3.1014   -0.9995   -2.6789 C.3       1 <0>         0.0000
      6 C6         -5.9583    1.5621   -3.4781 C.3       1 <0>         0.0000
      7 C7         -3.8316   -1.5902    1.7919 C.3       1 <0>         0.0000
      8 C8         -2.3755   -2.7267    0.1980 C.3       1 <0>         0.0000
      9 C9         -4.8108   -2.7590    1.7055 C.3       1 <0>         0.0000
     10 C10        -3.3761   -3.8839    0.1390 C.3       1 <0>         0.0000
     11 C11        -3.8895    2.5710   -2.4629 C.3       1 <0>         0.0000
     12 C12        -2.3343   -0.3201   -1.5228 C.3       1 <0>         0.0000
     13 C13        -3.8716    0.1613   -3.3379 C.3       1 <0>         0.0000
     14 C14        -3.0258    1.4084   -2.9685 C.3       1 <0>         0.0000
     15 C15        -6.9458    6.7269   -6.0815 C.3       1 <0>         0.0000
     16 C16        -5.0069   -5.1485    1.3891 C.3       1 <0>         0.0000
     17 N1         -5.0938    6.0136   -4.6037 N.2       1 <0>         0.0000
     18 N2         -4.5863    4.9700   -3.8720 N.2       1 <0>         0.0000
     19 N3         -5.0596    2.7078   -3.3373 N.pl3     1 <0>         0.0000
     20 N4         -3.0574   -1.4843    0.5539 N.am      1 <0>         0.0000
     21 N5         -4.1030   -4.0041    1.3998 N.3       1 <0>         0.0000
     22 O1         -3.8399    0.6118    0.1279 O.2       1 <0>         0.0000
     23 O2         -2.0882    1.0068   -1.9530 O.3       1 <0>         0.0000
     24 S1         -6.7751    4.0956   -4.9575 S.3       1 <0>         0.0000
     25 H1         -5.3579    0.3716   -1.7718 H         1 <0>         0.0000
     26 H2         -5.9140   -0.5606   -3.1605 H         1 <0>         0.0000
     27 H3         -2.3828   -1.4278   -3.3841 H         1 <0>         0.0000
     28 H4         -3.7635   -1.8023   -2.3427 H         1 <0>         0.0000
     29 H5         -6.1471    1.3863   -4.5467 H         1 <0>         0.0000
     30 H6         -6.9291    1.7698   -3.0053 H         1 <0>         0.0000
     31 H7         -4.3565   -0.6483    1.9447 H         1 <0>         0.0000
     32 H8         -3.1390   -1.7547    2.6268 H         1 <0>         0.0000
     33 H9         -1.6171   -2.9476    0.9602 H         1 <0>         0.0000
     34 H10        -1.8718   -2.6359   -0.7621 H         1 <0>         0.0000
     35 H11        -5.3220   -2.8730    2.6674 H         1 <0>         0.0000
     36 H12        -5.5800   -2.5313    0.9417 H         1 <0>         0.0000
     37 H13        -4.0648   -3.7218   -0.7149 H         1 <0>         0.0000
     38 H14        -2.8326   -4.8170   -0.0466 H         1 <0>         0.0000
     39 H15        -4.1917    2.3709   -1.4317 H         1 <0>         0.0000
     40 H16        -3.3360    3.5073   -2.4875 H         1 <0>         0.0000
     41 H17        -1.3532   -0.7743   -1.3603 H         1 <0>         0.0000
     42 H18        -3.8792    0.0348   -4.4255 H         1 <0>         0.0000
     43 H19        -2.4386    1.7430   -3.8305 H         1 <0>         0.0000
     44 H20        -7.0373    6.3669   -7.1120 H         1 <0>         0.0000
     45 H21        -7.9559    6.9111   -5.6996 H         1 <0>         0.0000
     46 H22        -6.3946    7.6697   -6.0860 H         1 <0>         0.0000
     47 H23        -5.4973   -5.2386    2.3633 H         1 <0>         0.0000
     48 H24        -4.4386   -6.0667    1.2092 H         1 <0>         0.0000
     49 H25        -5.7923   -5.0709    0.6137 H         1 <0>         0.0000
@<TRIPOS>BOND
     1    1   15 1
     2    1   17 2
     3    1   24 1
     4    2   18 2
     5    2   19 1
     6    2   24 1
     7    3   12 1
     8    3   20 am
     9    3   22 2
    10    4    6 1
    11    4   13 1
    12    4   25 1
    13    4   26 1
    14    5   12 1
    15    5   13 1
    16    5   27 1
    17    5   28 1
    18    6   19 1
    19    6   29 1
    20    6   30 1
    21    7    9 1
    22    7   20 1
    23    7   31 1
    24    7   32 1
    25    8   10 1
    26    8   20 1
    27    8   33 1
    28    8   34 1
    29    9   21 1
    30    9   35 1
    31    9   36 1
    32   10   21 1
    33   10   37 1
    34   10   38 1
    35   11   14 1
    36   11   19 1
    37   11   39 1
    38   11   40 1
    39   12   23 1
    40   12   41 1
    41   13   14 1
    42   13   42 1
    43   14   23 1
    44   14   43 1
    45   15   44 1
    46   15   45 1
    47   15   46 1
    48   16   21 1
    49   16   47 1
    50   16   48 1
    51   16   49 1
    52   17   18 1
