@<TRIPOS>MOLECULE
*****
   26    26     0     0     0
SMALL
NO_CHARGES

@<TRIPOS>ATOM
      1 C1          1.7452   -0.9056   -0.5960 C.1       1 <0>         0.0000
      2 C2         -0.7306   -6.2478    1.1491 C.ar      1 <0>         0.0000
      3 C3         -2.0981   -6.2597    1.4432 C.ar      1 <0>         0.0000
      4 C4         -2.2091   -3.8760    0.8865 C.ar      1 <0>         0.0000
      5 C5         -0.8319   -3.8667    0.5819 C.ar      1 <0>         0.0000
      6 C6         -0.1158   -5.0772    0.7090 C.ar      1 <0>         0.0000
      7 C7         -2.8018   -5.0617    1.3197 C.ar      1 <0>         0.0000
      8 C8         -0.6498   -1.4669   -0.0907 C.2       1 <0>         0.0000
      9 C9          0.2847    0.8155    0.3877 C.3       1 <0>         0.0000
     10 C10        -0.0403    0.0259   -2.0106 C.3       1 <0>         0.0000
     11 C11         0.3654   -0.3917   -0.5761 C.3       1 <0>         0.0000
     12 N1          2.8260   -1.3367   -0.6092 N.1       1 <0>         0.0000
     13 N2         -0.1395   -2.7118    0.1701 N.am      1 <0>         0.0000
     14 O1         -1.8286   -1.1543    0.0210 O.2       1 <0>         0.0000
     15 Cl1         1.5952   -5.1253    0.3049 Cl        1 <0>         0.0000
     16 I1         -5.0626   -5.2082    1.1096 I         1 <0>         0.0000
     17 H1         -0.1419   -7.1539    1.2516 H         1 <0>         0.0000
     18 H2         -2.5807   -7.1742    1.7697 H         1 <0>         0.0000
     19 H3         -2.7715   -2.9601    0.7721 H         1 <0>         0.0000
     20 H4         -0.7453    1.1760    0.4109 H         1 <0>         0.0000
     21 H5          0.5830    0.5334    1.4009 H         1 <0>         0.0000
     22 H6          0.9422    1.6161    0.0395 H         1 <0>         0.0000
     23 H7         -1.0710    0.3855   -1.9920 H         1 <0>         0.0000
     24 H8          0.0289   -0.8172   -2.7031 H         1 <0>         0.0000
     25 H9          0.6155    0.8246   -2.3664 H         1 <0>         0.0000
     26 H10         0.8582   -2.8407    0.0271 H         1 <0>         0.0000
@<TRIPOS>BOND
     1    1   11 1
     2    1   12 3
     3    2    3 ar
     4    2    6 ar
     5    2   17 1
     6    3    7 ar
     7    3   18 1
     8    4    5 ar
     9    4    7 ar
    10    4   19 1
    11    5    6 ar
    12    5   13 1
    13    6   15 1
    14    7   16 1
    15    8   11 1
    16    8   13 am
    17    8   14 2
    18    9   11 1
    19    9   20 1
    20    9   21 1
    21    9   22 1
    22   10   11 1
    23   10   23 1
    24   10   24 1
    25   10   25 1
    26   13   26 1
