@<TRIPOS>MOLECULE
*****
   49    52     0     0     0
SMALL
NO_CHARGES

@<TRIPOS>ATOM
      1 C1         -0.2942    3.2790    2.1232 C.2       1 <0>         0.0000
      2 C2         -0.3912    3.1878   -0.2868 C.2       1 <0>         0.0000
      3 C3         -2.1641   -0.1069    0.6261 C.2       1 <0>         0.0000
      4 C4         -1.8550    2.5099   -3.5144 C.3       1 <0>         0.0000
      5 C5         -2.7347    0.9389   -1.6428 C.3       1 <0>         0.0000
      6 C6         -1.3231    3.5539   -2.5115 C.3       1 <0>         0.0000
      7 C7         -0.7742   -2.2037    0.8264 C.3       1 <0>         0.0000
      8 C8         -1.5697   -1.0302    2.8117 C.3       1 <0>         0.0000
      9 C9          0.6594   -2.0754    1.3424 C.3       1 <0>         0.0000
     10 C10        -0.1268   -0.9280    3.3059 C.3       1 <0>         0.0000
     11 C11         0.4376    1.8433   -2.1972 C.3       1 <0>         0.0000
     12 C12        -2.0421   -0.2023   -0.9061 C.3       1 <0>         0.0000
     13 C13        -1.8882    1.0956   -2.9198 C.3       1 <0>         0.0000
     14 C14        -0.4768    0.6428   -2.4704 C.3       1 <0>         0.0000
     15 C15        -0.0722    3.1063    3.5924 C.3       1 <0>         0.0000
     16 C16         2.0418   -1.9841    3.3183 C.3       1 <0>         0.0000
     17 N1         -1.1005    4.1506    1.6046 N.2       1 <0>         0.0000
     18 N2         -1.1629    4.1145    0.2332 N.2       1 <0>         0.0000
     19 N3         -0.2996    2.9622   -1.6330 N.pl3     1 <0>         0.0000
     20 N4         -1.5985   -1.1169    1.3521 N.am      1 <0>         0.0000
     21 N5          0.6780   -2.0446    2.8067 N.3       1 <0>         0.0000
     22 O1         -2.7641    0.8335    1.1501 O.2       1 <0>         0.0000
     23 O2         -0.6450   -0.1158   -1.2618 O.3       1 <0>         0.0000
     24 S1          0.5098    2.2632    0.9178 S.3       1 <0>         0.0000
     25 H1         -2.8568    2.8117   -3.8368 H         1 <0>         0.0000
     26 H2         -1.2336    2.4967   -4.4180 H         1 <0>         0.0000
     27 H3         -3.7798    0.7071   -1.8623 H         1 <0>         0.0000
     28 H4         -2.7187    1.8300   -1.0147 H         1 <0>         0.0000
     29 H5         -0.9055    4.4181   -3.0434 H         1 <0>         0.0000
     30 H6         -2.1216    3.9288   -1.8715 H         1 <0>         0.0000
     31 H7         -0.7684   -2.1915   -0.2603 H         1 <0>         0.0000
     32 H8         -1.1969   -3.1568    1.1695 H         1 <0>         0.0000
     33 H9         -2.0357   -1.9318    3.2284 H         1 <0>         0.0000
     34 H10        -2.1496   -0.1582    3.1120 H         1 <0>         0.0000
     35 H11         1.2412   -2.9400    1.0035 H         1 <0>         0.0000
     36 H12         1.1117   -1.1667    0.9048 H         1 <0>         0.0000
     37 H13         0.2941    0.0435    2.9862 H         1 <0>         0.0000
     38 H14        -0.1188   -0.9510    4.4014 H         1 <0>         0.0000
     39 H15         1.2488    1.5464   -1.5297 H         1 <0>         0.0000
     40 H16         0.9007    2.1709   -3.1367 H         1 <0>         0.0000
     41 H17        -2.4348   -1.1730   -1.2444 H         1 <0>         0.0000
     42 H18        -2.2545    0.3996   -3.6818 H         1 <0>         0.0000
     43 H19        -0.0019   -0.0064   -3.2178 H         1 <0>         0.0000
     44 H20        -0.4475    2.1368    3.9370 H         1 <0>         0.0000
     45 H21         0.9894    3.1699    3.8534 H         1 <0>         0.0000
     46 H22        -0.6149    3.8957    4.1167 H         1 <0>         0.0000
     47 H23         2.6076   -2.8527    2.9660 H         1 <0>         0.0000
     48 H24         2.0271   -2.0097    4.4127 H         1 <0>         0.0000
     49 H25         2.5808   -1.0706    3.0021 H         1 <0>         0.0000
@<TRIPOS>BOND
     1    1   15 1
     2    1   17 2
     3    1   24 1
     4    2   18 2
     5    2   19 1
     6    2   24 1
     7    3   12 1
     8    3   20 am
     9    3   22 2
    10    4    6 1
    11    4   13 1
    12    4   25 1
    13    4   26 1
    14    5   12 1
    15    5   13 1
    16    5   27 1
    17    5   28 1
    18    6   19 1
    19    6   29 1
    20    6   30 1
    21    7    9 1
    22    7   20 1
    23    7   31 1
    24    7   32 1
    25    8   10 1
    26    8   20 1
    27    8   33 1
    28    8   34 1
    29    9   21 1
    30    9   35 1
    31    9   36 1
    32   10   21 1
    33   10   37 1
    34   10   38 1
    35   11   14 1
    36   11   19 1
    37   11   39 1
    38   11   40 1
    39   12   23 1
    40   12   41 1
    41   13   14 1
    42   13   42 1
    43   14   23 1
    44   14   43 1
    45   15   44 1
    46   15   45 1
    47   15   46 1
    48   16   21 1
    49   16   47 1
    50   16   48 1
    51   16   49 1
    52   17   18 1
