@<TRIPOS>MOLECULE
*****
   35    37     0     0     0
SMALL
NO_CHARGES

@<TRIPOS>ATOM
      1 C1          4.4166    1.7089    2.8064 C.1       1 <0>         0.0000
      2 C2          1.8409    0.2615    5.0623 C.ar      1 <0>         0.0000
      3 C3          0.6332   -2.8395    0.1799 C.ar      1 <0>         0.0000
      4 C4         -0.1012   -1.7376   -0.2705 C.ar      1 <0>         0.0000
      5 C5          0.6784    0.3740    4.2964 C.ar      1 <0>         0.0000
      6 C6          3.0566    0.7256    4.5599 C.ar      1 <0>         0.0000
      7 C7          1.9876   -2.6913    0.4969 C.ar      1 <0>         0.0000
      8 C8          0.5136   -0.4899   -0.4057 C.ar      1 <0>         0.0000
      9 C9          0.7280    0.9608    3.0288 C.ar      1 <0>         0.0000
     10 C10         3.1211    1.3080    3.2823 C.ar      1 <0>         0.0000
     11 C11         2.6118   -1.4453    0.3978 C.ar      1 <0>         0.0000
     12 C12         1.8611   -0.3452   -0.0560 C.ar      1 <0>         0.0000
     13 C13         1.9401    1.4256    2.5222 C.ar      1 <0>         0.0000
     14 C14         4.0728   -1.2160    0.6858 C.3       1 <0>         0.0000
     15 C15         4.6679   -0.3646   -0.4457 C.3       1 <0>         0.0000
     16 C16         3.9431    0.9864   -0.5832 C.3       1 <0>         0.0000
     17 N1          5.5069    1.9471    2.4741 N.1       1 <0>         0.0000
     18 N2          2.5228    0.9234   -0.1332 N.pl3     1 <0>         0.0000
     19 O1          0.5198    2.3575    0.5370 O.2       1 <0>         0.0000
     20 O2          2.8907    3.2454    0.8141 O.2       1 <0>         0.0000
     21 S1          1.9300    2.1474    0.8595 S.o2      1 <0>         0.0000
     22 H1          1.8043   -0.1885    6.0502 H         1 <0>         0.0000
     23 H2          0.1572   -3.8122    0.2717 H         1 <0>         0.0000
     24 H3         -1.1496   -1.8497   -0.5336 H         1 <0>         0.0000
     25 H4         -0.2694    0.0104    4.6828 H         1 <0>         0.0000
     26 H5          3.9673    0.6399    5.1443 H         1 <0>         0.0000
     27 H6          2.5658   -3.5497    0.8322 H         1 <0>         0.0000
     28 H7         -0.0400    0.3717   -0.7607 H         1 <0>         0.0000
     29 H8         -0.1664    1.0675    2.4255 H         1 <0>         0.0000
     30 H9          4.1985   -0.6961    1.6422 H         1 <0>         0.0000
     31 H10         4.6026   -2.1692    0.7711 H         1 <0>         0.0000
     32 H11         5.7301   -0.1704   -0.2698 H         1 <0>         0.0000
     33 H12         4.5863   -0.9294   -1.3801 H         1 <0>         0.0000
     34 H13         4.4463    1.7531    0.0018 H         1 <0>         0.0000
     35 H14         3.9460    1.3170   -1.6262 H         1 <0>         0.0000
@<TRIPOS>BOND
     1    1   10 1
     2    1   17 3
     3    2    5 ar
     4    2    6 ar
     5    2   22 1
     6    3    4 ar
     7    3    7 ar
     8    3   23 1
     9    4    8 ar
    10    4   24 1
    11    5    9 ar
    12    5   25 1
    13    6   10 ar
    14    6   26 1
    15    7   11 ar
    16    7   27 1
    17    8   12 ar
    18    8   28 1
    19    9   13 ar
    20    9   29 1
    21   10   13 ar
    22   11   12 ar
    23   11   14 1
    24   12   18 1
    25   13   21 1
    26   14   15 1
    27   14   30 1
    28   14   31 1
    29   15   16 1
    30   15   32 1
    31   15   33 1
    32   16   18 1
    33   16   34 1
    34   16   35 1
    35   18   21 1
    36   19   21 2
    37   20   21 2
