@<TRIPOS>MOLECULE
*****
   51    54     0     0     0
SMALL
NO_CHARGES

@<TRIPOS>ATOM
      1 C1         -1.4973   -1.8678   -4.6257 C.1       1 <0>         0.0000
      2 C2         -4.9321   -0.8883   -3.6662 C.ar      1 <0>         0.0000
      3 C3         -2.5760   -1.3519   -3.8442 C.ar      1 <0>         0.0000
      4 C4         -3.8843   -1.5005   -4.3526 C.ar      1 <0>         0.0000
      5 C5         -4.6519   -0.1245   -2.5248 C.ar      1 <0>         0.0000
      6 C6         -2.3846   -0.6176   -2.6286 C.ar      1 <0>         0.0000
      7 C7          0.6552    0.4851    1.0282 C.2       1 <0>         0.0000
      8 C8          1.0554    2.7550   -0.7341 C.3       1 <0>         0.0000
      9 C9          3.3441    0.1947    3.4061 C.3       1 <0>         0.0000
     10 C10         3.0957    0.9625    4.6878 C.3       1 <0>         0.0000
     11 C11         1.1915    1.3610   -1.3374 C.3       1 <0>         0.0000
     12 C12         0.8169   -1.1199   -0.9273 C.3       1 <0>         0.0000
     13 C13         1.6581    2.7589    0.6629 C.3       1 <0>         0.0000
     14 C14        -0.0015   -1.3412   -2.2055 C.3       1 <0>         0.0000
     15 C15        -1.0647    0.3315   -0.7905 C.3       1 <0>         0.0000
     16 C16         2.7944    1.6036    3.3499 C.3       1 <0>         0.0000
     17 C17         0.4505    0.3133   -0.4876 C.3       1 <0>         0.0000
     18 C18        -4.1294   -2.2763   -5.6206 C.3       1 <0>         0.0000
     19 C19        -5.7421    0.6075   -1.7839 C.3       1 <0>         0.0000
     20 C20         1.3498    1.8184    2.9450 C.3       1 <0>         0.0000
     21 N1         -0.6577   -2.2827   -5.3236 N.1       1 <0>         0.0000
     22 N2         -3.4198   -0.0004   -2.0224 N.ar      1 <0>         0.0000
     23 N3         -1.1760   -0.4724   -2.0165 N.pl3     1 <0>         0.0000
     24 N4          1.1217    1.6831    1.5003 N.am      1 <0>         0.0000
     25 O1          0.3428   -0.4364    1.7907 O.2       1 <0>         0.0000
     26 H1         -5.9520   -0.9799   -4.0263 H         1 <0>         0.0000
     27 H2          1.5719    3.4996   -1.3487 H         1 <0>         0.0000
     28 H3          0.0017    3.0514   -0.6838 H         1 <0>         0.0000
     29 H4          4.3739    0.0356    3.0990 H         1 <0>         0.0000
     30 H5          2.6601   -0.6104    3.1577 H         1 <0>         0.0000
     31 H6          2.2528    0.6579    5.3024 H         1 <0>         0.0000
     32 H7          3.9525    1.3250    5.2482 H         1 <0>         0.0000
     33 H8          0.8083    1.3403   -2.3628 H         1 <0>         0.0000
     34 H9          2.2558    1.0978   -1.3909 H         1 <0>         0.0000
     35 H10         0.5070   -1.8146   -0.1448 H         1 <0>         0.0000
     36 H11         1.8895   -1.2452   -1.0993 H         1 <0>         0.0000
     37 H12         2.7518    2.6657    0.5947 H         1 <0>         0.0000
     38 H13         1.4496    3.7079    1.1697 H         1 <0>         0.0000
     39 H14         0.5567   -1.0574   -3.1020 H         1 <0>         0.0000
     40 H15        -0.3034   -2.3859   -2.3216 H         1 <0>         0.0000
     41 H16        -1.6322   -0.1214    0.0288 H         1 <0>         0.0000
     42 H17        -1.4613    1.3344   -0.9582 H         1 <0>         0.0000
     43 H18         3.4883    2.3788    3.0309 H         1 <0>         0.0000
     44 H19        -3.6144   -1.8109   -6.4676 H         1 <0>         0.0000
     45 H20        -3.7420   -3.2968   -5.5391 H         1 <0>         0.0000
     46 H21        -5.1966   -2.3249   -5.8479 H         1 <0>         0.0000
     47 H22        -5.7666    0.2856   -0.7382 H         1 <0>         0.0000
     48 H23        -5.5371    1.6832   -1.7852 H         1 <0>         0.0000
     49 H24        -6.7242    0.4361   -2.2311 H         1 <0>         0.0000
     50 H25         1.0181    2.8204    3.2439 H         1 <0>         0.0000
     51 H26         0.7108    1.0873    3.4400 H         1 <0>         0.0000
@<TRIPOS>BOND
     1    1    3 1
     2    1   21 3
     3    2    4 ar
     4    2    5 ar
     5    2   26 1
     6    3    4 ar
     7    3    6 ar
     8    4   18 1
     9    5   19 1
    10    5   22 ar
    11    6   22 ar
    12    6   23 1
    13    7   17 1
    14    7   24 am
    15    7   25 2
    16    8   11 1
    17    8   13 1
    18    8   27 1
    19    8   28 1
    20    9   10 1
    21    9   16 1
    22    9   29 1
    23    9   30 1
    24   10   16 1
    25   10   31 1
    26   10   32 1
    27   11   17 1
    28   11   33 1
    29   11   34 1
    30   12   14 1
    31   12   17 1
    32   12   35 1
    33   12   36 1
    34   13   24 1
    35   13   37 1
    36   13   38 1
    37   14   23 1
    38   14   39 1
    39   14   40 1
    40   15   17 1
    41   15   23 1
    42   15   41 1
    43   15   42 1
    44   16   20 1
    45   16   43 1
    46   18   44 1
    47   18   45 1
    48   18   46 1
    49   19   47 1
    50   19   48 1
    51   19   49 1
    52   20   24 1
    53   20   50 1
    54   20   51 1
