@<TRIPOS>MOLECULE
*****
   16    16     0     0     0
SMALL
NO_CHARGES

@<TRIPOS>ATOM
      1 C1          1.9482   -0.8908   -0.0508 C.ar      1 <0>         0.0000
      2 C2          0.8370   -0.3583    0.5946 C.ar      1 <0>         0.0000
      3 C3          1.7443   -1.1600    2.7077 C.ar      1 <0>         0.0000
      4 C4          2.9721   -1.5529    0.6493 C.ar      1 <0>         0.0000
      5 C5          2.8585   -1.7149    2.0520 C.ar      1 <0>         0.0000
      6 C6          0.7620   -0.4924    1.9833 C.ar      1 <0>         0.0000
      7 C7          4.1463   -2.1218   -0.0768 C.2       1 <0>         0.0000
      8 O1          4.7950   -3.0596    0.3358 O.2       1 <0>         0.0000
      9 O2          4.4846   -1.5377   -1.2630 O.3       1 <0>         0.0000
     10 S1          4.0921   -2.5973    2.9771 S.3       1 <0>         0.0000
     11 Br1        -0.7400    0.2397    2.9140 Br        1 <0>         0.0000
     12 H1          1.9905   -0.8223   -1.1353 H         1 <0>         0.0000
     13 H2          0.0504    0.1388    0.0381 H         1 <0>         0.0000
     14 H3          1.6361   -1.2586    3.7827 H         1 <0>         0.0000
     15 H4          4.0146   -0.6941   -1.3695 H         1 <0>         0.0000
     16 H5          3.6167   -2.1919    4.1767 H         1 <0>         0.0000
@<TRIPOS>BOND
     1    1    2 ar
     2    1    4 ar
     3    1   12 1
     4    2    6 ar
     5    2   13 1
     6    3    5 ar
     7    3    6 ar
     8    3   14 1
     9    4    5 ar
    10    4    7 1
    11    5   10 1
    12    6   11 1
    13    7    8 2
    14    7    9 1
    15    9   15 1
    16   10   16 1
