@<TRIPOS>MOLECULE
*****
   25    26     0     0     0
SMALL
NO_CHARGES

@<TRIPOS>ATOM
      1 C1          3.4570   -0.8838    0.7829 C.ar      1 <0>         0.0000
      2 C2          2.4814   -0.1010    1.4091 C.ar      1 <0>         0.0000
      3 C3          3.1465   -2.1526    0.2985 C.ar      1 <0>         0.0000
      4 C4          0.8576   -1.8770    1.0645 C.ar      1 <0>         0.0000
      5 C5          1.1756   -0.5956    1.5524 C.ar      1 <0>         0.0000
      6 C6          1.8389   -2.6462    0.4429 C.ar      1 <0>         0.0000
      7 C7         -1.0884    3.8235    4.1846 C.2       1 <0>         0.0000
      8 C8         -1.9142    1.8499    3.5200 C.2       1 <0>         0.0000
      9 C9          0.1795    0.2532    2.2138 C.2       1 <0>         0.0000
     10 C10        -2.5488    4.0005    4.6704 C.3       1 <0>         0.0000
     11 N1         -0.8503    2.5993    3.5633 N.2       1 <0>         0.0000
     12 N2         -1.0314   -0.1728    2.3580 N.2       1 <0>         0.0000
     13 N3         -1.9825    0.6118    2.9780 N.pl3     1 <0>         0.0000
     14 O1         -0.2620    4.6992    4.3520 O.2       1 <0>         0.0000
     15 O2          1.5899   -3.9027   -0.0529 O.3       1 <0>         0.0000
     16 S1         -3.4443    2.4784    4.2310 S.3       1 <0>         0.0000
     17 H1          4.4681   -0.5019    0.6713 H         1 <0>         0.0000
     18 H2          2.7289    0.8880    1.7852 H         1 <0>         0.0000
     19 H3          3.8920   -2.7730   -0.1899 H         1 <0>         0.0000
     20 H4         -0.1574   -2.2497    1.1814 H         1 <0>         0.0000
     21 H5          0.5008    1.2306    2.5669 H         1 <0>         0.0000
     22 H6         -2.5569    4.1565    5.7504 H         1 <0>         0.0000
     23 H7         -2.9936    4.8669    4.1783 H         1 <0>         0.0000
     24 H8         -2.8777    0.1411    3.0145 H         1 <0>         0.0000
     25 H9          0.6593   -4.1273    0.1064 H         1 <0>         0.0000
@<TRIPOS>BOND
     1    1    2 ar
     2    1    3 ar
     3    1   17 1
     4    2    5 ar
     5    2   18 1
     6    3    6 ar
     7    3   19 1
     8    4    5 ar
     9    4    6 ar
    10    4   20 1
    11    5    9 1
    12    6   15 1
    13    7   10 1
    14    7   11 1
    15    7   14 2
    16    8   11 2
    17    8   13 1
    18    8   16 1
    19    9   12 2
    20    9   21 1
    21   10   16 1
    22   10   22 1
    23   10   23 1
    24   12   13 1
    25   13   24 1
    26   15   25 1
