@<TRIPOS>MOLECULE
*****
   20    20     0     0     0
SMALL
NO_CHARGES

@<TRIPOS>ATOM
      1 C1          6.0778   -1.4101   -2.8841 C.1       1 <0>         0.0000
      2 C2          2.3689   -1.0290   -0.6720 C.ar      1 <0>         0.0000
      3 C3          1.3100   -0.3898   -0.0243 C.ar      1 <0>         0.0000
      4 C4          2.4329   -0.7042    2.1095 C.ar      1 <0>         0.0000
      5 C5          3.4619   -1.5187    0.0484 C.ar      1 <0>         0.0000
      6 C6          3.4642   -1.3492    1.4382 C.ar      1 <0>         0.0000
      7 C7          1.3537   -0.2283    1.3621 C.ar      1 <0>         0.0000
      8 C8          6.5816   -2.1070   -1.6926 C.3       1 <0>         0.0000
      9 C9          5.7997   -1.7281   -0.4337 C.3       1 <0>         0.0000
     10 N1          5.6714   -0.8413   -3.8129 N.1       1 <0>         0.0000
     11 O1          4.4536   -2.1880   -0.6240 O.3       1 <0>         0.0000
     12 F1          4.5082   -1.8350    2.1587 F         1 <0>         0.0000
     13 Cl1         0.0361    0.5828    2.1870 Cl        1 <0>         0.0000
     14 H1          2.3683   -1.1567   -1.7502 H         1 <0>         0.0000
     15 H2          0.4656   -0.0127   -0.5913 H         1 <0>         0.0000
     16 H3          2.4760   -0.5948    3.1878 H         1 <0>         0.0000
     17 H4          6.5099   -3.1863   -1.8584 H         1 <0>         0.0000
     18 H5          7.6395   -1.8592   -1.5562 H         1 <0>         0.0000
     19 H6          5.8106   -0.6437   -0.2830 H         1 <0>         0.0000
     20 H7          6.2485   -2.2133    0.4380 H         1 <0>         0.0000
@<TRIPOS>BOND
     1    1    8 1
     2    1   10 3
     3    2    3 ar
     4    2    5 ar
     5    2   14 1
     6    3    7 ar
     7    3   15 1
     8    4    6 ar
     9    4    7 ar
    10    4   16 1
    11    5    6 ar
    12    5   11 1
    13    6   12 1
    14    7   13 1
    15    8    9 1
    16    8   17 1
    17    8   18 1
    18    9   11 1
    19    9   19 1
    20    9   20 1
