@<TRIPOS>MOLECULE
*****
   18    18     0     0     0
SMALL
NO_CHARGES

@<TRIPOS>ATOM
      1 C1          1.6813   -0.8056   -0.1502 C.ar      1 <0>         0.0000
      2 C2          0.6597   -0.2901    0.6495 C.ar      1 <0>         0.0000
      3 C3          2.5873   -1.9951    1.7607 C.ar      1 <0>         0.0000
      4 C4          1.5551   -1.4867    2.5386 C.ar      1 <0>         0.0000
      5 C5          2.6465   -1.6554    0.4044 C.ar      1 <0>         0.0000
      6 C6          0.5882   -0.6311    2.0018 C.ar      1 <0>         0.0000
      7 C7          3.7430   -4.0558   -0.5136 C.2       1 <0>         0.0000
      8 C8          4.6860   -4.8084   -1.4291 C.3       1 <0>         0.0000
      9 O1          2.9239   -4.5840    0.2033 O.2       1 <0>         0.0000
     10 F1          1.4966   -1.8219    3.8430 F         1 <0>         0.0000
     11 S1          3.9689   -2.2544   -0.6314 S.3       1 <0>         0.0000
     12 Cl1        -0.6844   -0.0066    3.0144 Cl        1 <0>         0.0000
     13 H1          1.7223   -0.5503   -1.2043 H         1 <0>         0.0000
     14 H2         -0.0907    0.3705    0.2271 H         1 <0>         0.0000
     15 H3          3.3176   -2.6525    2.2189 H         1 <0>         0.0000
     16 H4          4.1386   -5.0735   -2.3399 H         1 <0>         0.0000
     17 H5          4.9978   -5.7321   -0.9364 H         1 <0>         0.0000
     18 H6          5.5594   -4.2148   -1.7088 H         1 <0>         0.0000
@<TRIPOS>BOND
     1    1    2 ar
     2    1    5 ar
     3    1   13 1
     4    2    6 ar
     5    2   14 1
     6    3    4 ar
     7    3    5 ar
     8    3   15 1
     9    4    6 ar
    10    4   10 1
    11    5   11 1
    12    6   12 1
    13    7    8 1
    14    7    9 2
    15    7   11 1
    16    8   16 1
    17    8   17 1
    18    8   18 1
