@<TRIPOS>MOLECULE
*****
   48    51     0     0     0
SMALL
NO_CHARGES

@<TRIPOS>ATOM
      1 C1         -4.0078    3.5314    7.6420 C.2       1 <0>         0.0000
      2 C2         -3.3333    4.4038    6.8325 C.2       1 <0>         0.0000
      3 C3         -3.1590    2.0448    6.2385 C.2       1 <0>         0.0000
      4 C4          0.6821   -0.0782    2.5206 C.2       1 <0>         0.0000
      5 C5          2.0302   -2.2917    3.8363 C.3       1 <0>         0.0000
      6 C6          0.5653   -2.0371    4.1699 C.3       1 <0>         0.0000
      7 C7          0.7426    0.3802    4.9956 C.3       1 <0>         0.0000
      8 C8          1.1673   -0.3931   -0.5161 C.3       1 <0>         0.0000
      9 C9          2.7983    1.1589    0.6059 C.3       1 <0>         0.0000
     10 C10         2.2820   -2.0096    2.3627 C.3       1 <0>         0.0000
     11 C11        -0.4509    0.5984    5.9236 C.3       1 <0>         0.0000
     12 C12        -1.3550   -0.3800    4.0049 C.3       1 <0>         0.0000
     13 C13         1.7851    0.0433   -1.8482 C.3       1 <0>         0.0000
     14 C14         3.3173    1.4998   -0.7942 C.3       1 <0>         0.0000
     15 C15         2.2162   -0.2613    0.5984 C.3       1 <0>         0.0000
     16 C16         0.1840   -0.5753    3.8899 C.3       1 <0>         0.0000
     17 C17        -2.8826    0.7304    5.5623 C.3       1 <0>         0.0000
     18 N1         -3.9011    2.1973    7.3008 N.2       1 <0>         0.0000
     19 N2          1.7432   -0.7143    1.9252 N.am      1 <0>         0.0000
     20 N3         -1.5565    0.7023    4.9741 N.3       1 <0>         0.0000
     21 O1          0.1586    0.9172    2.0124 O.2       1 <0>         0.0000
     22 O2          2.3039    1.3697   -1.7893 O.3       1 <0>         0.0000
     23 S1         -2.5151    3.5359    5.5719 S.3       1 <0>         0.0000
     24 H1         -4.5942    3.8112    8.5108 H         1 <0>         0.0000
     25 H2         -3.2634    5.4807    6.9165 H         1 <0>         0.0000
     26 H3          2.6771   -1.6529    4.4474 H         1 <0>         0.0000
     27 H4          2.3086   -3.3293    4.0492 H         1 <0>         0.0000
     28 H5         -0.0640   -2.7033    3.5645 H         1 <0>         0.0000
     29 H6          0.3529   -2.2746    5.2187 H         1 <0>         0.0000
     30 H7          1.0315    1.3359    4.5530 H         1 <0>         0.0000
     31 H8          1.6092   -0.0416    5.5111 H         1 <0>         0.0000
     32 H9          0.3077    0.2377   -0.2833 H         1 <0>         0.0000
     33 H10         0.8230   -1.4322   -0.5943 H         1 <0>         0.0000
     34 H11         3.6194    1.2257    1.3303 H         1 <0>         0.0000
     35 H12         2.0242    1.8701    0.8972 H         1 <0>         0.0000
     36 H13         3.3590   -2.0105    2.1649 H         1 <0>         0.0000
     37 H14         1.8437   -2.8121    1.7495 H         1 <0>         0.0000
     38 H15        -0.5796   -0.2570    6.6159 H         1 <0>         0.0000
     39 H16        -0.3635    1.5056    6.5279 H         1 <0>         0.0000
     40 H17        -1.8122   -0.1161    3.0490 H         1 <0>         0.0000
     41 H18        -1.8057   -1.3233    4.3630 H         1 <0>         0.0000
     42 H19         2.5897   -0.6540   -2.1410 H         1 <0>         0.0000
     43 H20         1.0356    0.0466   -2.6438 H         1 <0>         0.0000
     44 H21         3.6563    2.5378   -0.8423 H         1 <0>         0.0000
     45 H22         4.1716    0.8499   -1.0532 H         1 <0>         0.0000
     46 H23         3.0386   -0.9427    0.3477 H         1 <0>         0.0000
     47 H24        -3.0551   -0.0736    6.2998 H         1 <0>         0.0000
     48 H25        -3.6147    0.5916    4.7573 H         1 <0>         0.0000
@<TRIPOS>BOND
     1    1    2 2
     2    1   18 1
     3    1   24 1
     4    2   23 1
     5    2   25 1
     6    3   17 1
     7    3   18 2
     8    3   23 1
     9    4   16 1
    10    4   19 am
    11    4   21 2
    12    5    6 1
    13    5   10 1
    14    5   26 1
    15    5   27 1
    16    6   16 1
    17    6   28 1
    18    6   29 1
    19    7   11 1
    20    7   16 1
    21    7   30 1
    22    7   31 1
    23    8   13 1
    24    8   15 1
    25    8   32 1
    26    8   33 1
    27    9   14 1
    28    9   15 1
    29    9   34 1
    30    9   35 1
    31   10   19 1
    32   10   36 1
    33   10   37 1
    34   11   20 1
    35   11   38 1
    36   11   39 1
    37   12   16 1
    38   12   20 1
    39   12   40 1
    40   12   41 1
    41   13   22 1
    42   13   42 1
    43   13   43 1
    44   14   22 1
    45   14   44 1
    46   14   45 1
    47   15   19 1
    48   15   46 1
    49   17   20 1
    50   17   47 1
    51   17   48 1
