@<TRIPOS>MOLECULE
*****
   32    34     0     0     0
SMALL
NO_CHARGES

@<TRIPOS>ATOM
      1 C1          2.0362   -0.6805    0.0221 C.ar      1 <0>         0.0000
      2 C2          1.0381    0.2719    0.1696 C.ar      1 <0>         0.0000
      3 C3          3.3583   -0.3285    0.2674 C.ar      1 <0>         0.0000
      4 C4          1.3604    1.5778    0.5539 C.ar      1 <0>         0.0000
      5 C5          3.6971    0.9845    0.6426 C.ar      1 <0>         0.0000
      6 C6          2.6916    1.9686    0.7844 C.ar      1 <0>         0.0000
      7 C7          2.1079    4.3850    1.1560 C.2       1 <0>         0.0000
      8 C8          5.1475    1.2741    0.9270 C.3       1 <0>         0.0000
      9 C9          5.4357    2.7589    0.8351 C.3       1 <0>         0.0000
     10 C10         1.7569    7.7642    1.3641 C.3       1 <0>         0.0000
     11 C11         2.0350    7.8232    2.8365 C.3       1 <0>         0.0000
     12 C12         4.4214    3.5265    1.6645 C.3       1 <0>         0.0000
     13 C13         1.5101    6.5542    2.2228 C.3       1 <0>         0.0000
     14 N1          3.0372    3.3123    1.1999 N.am      1 <0>         0.0000
     15 N2          2.3394    5.3756    2.1136 N.am      1 <0>         0.0000
     16 O1          1.1754    4.4754    0.3539 O.2       1 <0>         0.0000
     17 H1          1.7856   -1.6958   -0.2689 H         1 <0>         0.0000
     18 H2          0.0000   -0.0000    0.0002 H         1 <0>         0.0000
     19 H3          4.1323   -1.0859    0.1666 H         1 <0>         0.0000
     20 H4          0.5240    2.2528    0.6989 H         1 <0>         0.0000
     21 H5          5.3859    0.9061    1.9324 H         1 <0>         0.0000
     22 H6          5.7902    0.7429    0.2149 H         1 <0>         0.0000
     23 H7          6.4506    2.9630    1.1946 H         1 <0>         0.0000
     24 H8          5.3918    3.0952   -0.2089 H         1 <0>         0.0000
     25 H9          0.8941    8.3022    0.9912 H         1 <0>         0.0000
     26 H10         2.6060    7.7560    0.6917 H         1 <0>         0.0000
     27 H11         3.0707    7.8546    3.1520 H         1 <0>         0.0000
     28 H12         1.3594    8.4010    3.4552 H         1 <0>         0.0000
     29 H13         4.4651    3.2359    2.7211 H         1 <0>         0.0000
     30 H14         4.6801    4.5883    1.5967 H         1 <0>         0.0000
     31 H15         0.4742    6.3068    2.4282 H         1 <0>         0.0000
     32 H16         3.1150    5.2674    2.7560 H         1 <0>         0.0000
@<TRIPOS>BOND
     1    1    2 ar
     2    1    3 ar
     3    1   17 1
     4    2    4 ar
     5    2   18 1
     6    3    5 ar
     7    3   19 1
     8    4    6 ar
     9    4   20 1
    10    5    6 ar
    11    5    8 1
    12    6   14 1
    13    7   14 am
    14    7   15 am
    15    7   16 2
    16    8    9 1
    17    8   21 1
    18    8   22 1
    19    9   12 1
    20    9   23 1
    21    9   24 1
    22   10   11 1
    23   10   13 1
    24   10   25 1
    25   10   26 1
    26   11   13 1
    27   11   27 1
    28   11   28 1
    29   12   14 1
    30   12   29 1
    31   12   30 1
    32   13   15 1
    33   13   31 1
    34   15   32 1
