@<TRIPOS>MOLECULE
*****
   28    29     0     0     0
SMALL
NO_CHARGES

@<TRIPOS>ATOM
      1 C1          5.8229    4.9775   -2.1631 C.ar      1 <0>         0.0000
      2 C2          6.2917    4.1386   -3.1883 C.ar      1 <0>         0.0000
      3 C3          4.8893    4.4903   -1.2602 C.ar      1 <0>         0.0000
      4 C4          5.7877    2.8435   -3.2468 C.ar      1 <0>         0.0000
      5 C5          4.4490    3.1593   -1.4159 C.ar      1 <0>         0.0000
      6 C6          0.8003   -0.5410   -0.3441 C.3       1 <0>         0.0000
      7 C7          1.3032   -0.1054   -1.7278 C.3       1 <0>         0.0000
      8 C8          1.9172   -0.4495    0.7060 C.3       1 <0>         0.0000
      9 C9          1.9252    1.2990   -1.6837 C.3       1 <0>         0.0000
     10 C10         2.5393    0.9547    0.7452 C.3       1 <0>         0.0000
     11 C11         3.0386    1.3615   -0.6379 C.3       1 <0>         0.0000
     12 N1          4.8808    2.3522   -2.3827 N.ar      1 <0>         0.0000
     13 O1          3.5467    2.7153   -0.5087 O.3       1 <0>         0.0000
     14 H1          6.1856    5.9985   -2.0740 H         1 <0>         0.0000
     15 H2          7.0212    4.4810   -3.9156 H         1 <0>         0.0000
     16 H3          4.4945    5.0922   -0.4481 H         1 <0>         0.0000
     17 H4          6.1190    2.1554   -4.0234 H         1 <0>         0.0000
     18 H5          0.4048   -1.5626   -0.3875 H         1 <0>         0.0000
     19 H6         -0.0332    0.1079   -0.0419 H         1 <0>         0.0000
     20 H7          2.0553   -0.8230   -2.0834 H         1 <0>         0.0000
     21 H8          0.4849   -0.1256   -2.4565 H         1 <0>         0.0000
     22 H9          1.5324   -0.7115    1.6981 H         1 <0>         0.0000
     23 H10         2.6971   -1.1861    0.4689 H         1 <0>         0.0000
     24 H11         2.3273    1.5748   -2.6624 H         1 <0>         0.0000
     25 H12         1.1590    2.0389   -1.4175 H         1 <0>         0.0000
     26 H13         1.7913    1.6854    1.0782 H         1 <0>         0.0000
     27 H14         3.3689    0.9945    1.4594 H         1 <0>         0.0000
     28 H15         3.8643    0.7132   -0.9464 H         1 <0>         0.0000
@<TRIPOS>BOND
     1    1    2 ar
     2    1    3 ar
     3    1   14 1
     4    2    4 ar
     5    2   15 1
     6    3    5 ar
     7    3   16 1
     8    4   12 ar
     9    4   17 1
    10    5   12 ar
    11    5   13 1
    12    6    8 1
    13    6    7 1
    14    6   18 1
    15    6   19 1
    16    7    9 1
    17    7   20 1
    18    7   21 1
    19    8   10 1
    20    8   22 1
    21    8   23 1
    22    9   11 1
    23    9   24 1
    24    9   25 1
    25   10   11 1
    26   10   26 1
    27   10   27 1
    28   11   13 1
    29   11   28 1
