@<TRIPOS>MOLECULE
*****
   65    69     0     0     0
SMALL
NO_CHARGES

@<TRIPOS>ATOM
      1 C1          6.1443   -2.9425    1.1488 C.ar      1 <0>         0.0000
      2 C2          6.8532   -1.0319    2.4359 C.ar      1 <0>         0.0000
      3 C3          3.3383   -1.9495    1.6253 C.ar      1 <0>         0.0000
      4 C4         -2.4139   -0.5397   -2.5911 C.ar      1 <0>         0.0000
      5 C5          7.4163   -3.4972    1.2637 C.ar      1 <0>         0.0000
      6 C6          8.1297   -1.5767    2.5506 C.ar      1 <0>         0.0000
      7 C7          2.0432   -1.4325    1.5241 C.ar      1 <0>         0.0000
      8 C8         -2.2782   -0.2366   -1.2403 C.ar      1 <0>         0.0000
      9 C9          4.2897    0.2738    1.5302 C.ar      1 <0>         0.0000
     10 C10         0.1363   -0.3807   -1.4958 C.ar      1 <0>         0.0000
     11 C11         5.8281   -1.7013    1.7376 C.ar      1 <0>         0.0000
     12 C12         4.4747   -1.1228    1.6268 C.ar      1 <0>         0.0000
     13 C13        -1.2947   -0.7439   -3.4170 C.ar      1 <0>         0.0000
     14 C14         3.0175    0.8010    1.4175 C.ar      1 <0>         0.0000
     15 C15        -0.0037   -0.6369   -2.8702 C.ar      1 <0>         0.0000
     16 C16         8.4182   -2.8151    1.9651 C.ar      1 <0>         0.0000
     17 C17         1.9000   -0.0499    1.4068 C.ar      1 <0>         0.0000
     18 C18        -0.9868   -0.1748   -0.7054 C.ar      1 <0>         0.0000
     19 C19         2.2139    1.4355   -2.6467 C.2       1 <0>         0.0000
     20 C20        -1.5106   -1.1184   -4.8723 C.3       1 <0>         0.0000
     21 C21        -0.2718   -0.9129   -5.7511 C.3       1 <0>         0.0000
     22 C22         0.9789   -1.4500   -5.0456 C.3       1 <0>         0.0000
     23 C23         1.1287    2.1077    0.7989 C.3       1 <0>         0.0000
     24 C24         1.2493   -0.7041   -3.7288 C.3       1 <0>         0.0000
     25 C25         2.5715    2.2546    1.3500 C.3       1 <0>         0.0000
     26 C26         2.5314    2.8229    2.7861 C.3       1 <0>         0.0000
     27 C27         3.4409    3.1246    0.4374 C.3       1 <0>         0.0000
     28 C28         1.8064    0.7211   -3.9660 C.3       1 <0>         0.0000
     29 C29         9.7697   -3.4353    2.1390 C.3       1 <0>         0.0000
     30 N1          0.7340    0.7402    1.2633 N.pl3     1 <0>         0.0000
     31 O1          2.9691    0.7713   -1.8726 O.co2     1 <0>         0.0000
     32 O2          1.7379    2.5880   -2.4556 O.co2     1 <0>         0.0000
     33 O3         -1.7266    1.2749    1.3701 O.2       1 <0>         0.0000
     34 O4         -0.9233   -1.0932    1.7900 O.2       1 <0>         0.0000
     35 F1         10.1239   -4.2207    1.0867 F         1 <0>         0.0000
     36 F2         10.7548   -2.5100    2.2911 F         1 <0>         0.0000
     37 F3          9.8373   -4.2392    3.2447 F         1 <0>         0.0000
     38 S1         -0.8184    0.1694    1.0468 S.o2      1 <0>         0.0000
     39 H1          5.3895   -3.4609    0.5655 H         1 <0>         0.0000
     40 H2          6.6369   -0.0823    2.9161 H         1 <0>         0.0000
     41 H3          3.4586   -3.0241    1.7358 H         1 <0>         0.0000
     42 H4         -3.4109   -0.6049   -3.0244 H         1 <0>         0.0000
     43 H5          7.6380   -4.4486    0.7891 H         1 <0>         0.0000
     44 H6          8.9007   -1.0421    3.0976 H         1 <0>         0.0000
     45 H7          1.1786   -2.0840    1.5437 H         1 <0>         0.0000
     46 H8         -3.1443   -0.0415   -0.6154 H         1 <0>         0.0000
     47 H9          5.1504    0.9355    1.4832 H         1 <0>         0.0000
     48 H10         1.1409   -0.2978   -1.0941 H         1 <0>         0.0000
     49 H11        -1.7992   -2.1794   -4.9080 H         1 <0>         0.0000
     50 H12        -2.3647   -0.5596   -5.2738 H         1 <0>         0.0000
     51 H13        -0.4187   -1.4135   -6.7163 H         1 <0>         0.0000
     52 H14        -0.1412    0.1537   -5.9626 H         1 <0>         0.0000
     53 H15         0.8396   -2.5219   -4.8424 H         1 <0>         0.0000
     54 H16         1.8543   -1.3605   -5.6997 H         1 <0>         0.0000
     55 H17         0.4376    2.8407    1.2167 H         1 <0>         0.0000
     56 H18         1.1297    2.1644   -0.2946 H         1 <0>         0.0000
     57 H19         2.0220   -1.2350   -3.1636 H         1 <0>         0.0000
     58 H20         2.1707    3.8585    2.7751 H         1 <0>         0.0000
     59 H21         3.5322    2.8133    3.2325 H         1 <0>         0.0000
     60 H22         1.8668    2.2324    3.4260 H         1 <0>         0.0000
     61 H23         3.0108    4.1291    0.3480 H         1 <0>         0.0000
     62 H24         3.4977    2.6807   -0.5584 H         1 <0>         0.0000
     63 H25         4.4484    3.2284    0.8606 H         1 <0>         0.0000
     64 H26         1.0769    1.3442   -4.4911 H         1 <0>         0.0000
     65 H27         2.7006    0.6307   -4.5975 H         1 <0>         0.0000
@<TRIPOS>BOND
     1    1    5 ar
     2    1   11 ar
     3    1   39 1
     4    2    6 ar
     5    2   11 ar
     6    2   40 1
     7    3    7 ar
     8    3   12 ar
     9    3   41 1
    10    4    8 ar
    11    4   13 ar
    12    4   42 1
    13    5   16 ar
    14    5   43 1
    15    6   16 ar
    16    6   44 1
    17    7   17 ar
    18    7   45 1
    19    8   18 ar
    20    8   46 1
    21    9   12 ar
    22    9   14 ar
    23    9   47 1
    24   10   15 ar
    25   10   18 ar
    26   10   48 1
    27   11   12 1
    28   13   15 ar
    29   13   20 1
    30   14   17 ar
    31   14   25 1
    32   15   24 1
    33   16   29 1
    34   17   30 1
    35   18   38 1
    36   19   28 1
    37   19   31 1
    38   19   32 2
    39   20   21 1
    40   20   49 1
    41   20   50 1
    42   21   22 1
    43   21   51 1
    44   21   52 1
    45   22   24 1
    46   22   53 1
    47   22   54 1
    48   23   25 1
    49   23   30 1
    50   23   55 1
    51   23   56 1
    52   24   28 1
    53   24   57 1
    54   25   26 1
    55   25   27 1
    56   26   58 1
    57   26   59 1
    58   26   60 1
    59   27   61 1
    60   27   62 1
    61   27   63 1
    62   28   64 1
    63   28   65 1
    64   29   35 1
    65   29   36 1
    66   29   37 1
    67   30   38 1
    68   33   38 2
    69   34   38 2
