@<TRIPOS>MOLECULE
*****
   61    64     0     0     0
SMALL
NO_CHARGES

@<TRIPOS>ATOM
      1 C1          2.7642    5.9115    2.9121 C.ar      1 <0>         0.0000
      2 C2         -3.5267    2.3482    9.5019 C.ar      1 <0>         0.0000
      3 C3          3.8479    6.4668    2.2320 C.ar      1 <0>         0.0000
      4 C4         -2.5801    2.0805    8.5106 C.ar      1 <0>         0.0000
      5 C5          3.1307    3.8413    1.7118 C.ar      1 <0>         0.0000
      6 C6         -4.3438    1.6593    6.8858 C.ar      1 <0>         0.0000
      7 C7          2.3918    4.5867    2.6447 C.ar      1 <0>         0.0000
      8 C8         -4.8892    2.2949    9.1824 C.ar      1 <0>         0.0000
      9 C9         -5.2814    1.9370    7.8887 C.ar      1 <0>         0.0000
     10 C10         4.5874    5.7441    1.2880 C.ar      1 <0>         0.0000
     11 C11         4.2246    4.3961    1.0385 C.ar      1 <0>         0.0000
     12 C12        -2.9837    1.7457    7.2089 C.ar      1 <0>         0.0000
     13 C13        -0.2876    2.6469    4.0401 C.2       1 <0>         0.0000
     14 C14        -0.4461    3.8415    4.6929 C.2       1 <0>         0.0000
     15 C15         1.2605    3.9586    3.3189 C.2       1 <0>         0.0000
     16 C16        -5.0469    3.6399   12.2422 C.2       1 <0>         0.0000
     17 C17        -6.7919    1.8608    7.7981 C.3       1 <0>         0.0000
     18 C18        -7.2468    2.6573    9.0443 C.3       1 <0>         0.0000
     19 C19        -6.0892    2.5507   10.0775 C.3       1 <0>         0.0000
     20 C20         5.7106    6.4150    0.5346 C.3       1 <0>         0.0000
     21 C21        -1.3377    4.4152    5.7429 C.3       1 <0>         0.0000
     22 C22         4.2612    2.5355   -0.5559 C.3       1 <0>         0.0000
     23 C23         6.2944    3.2322    0.5371 C.3       1 <0>         0.0000
     24 C24        -1.0298    1.3423    4.1149 C.3       1 <0>         0.0000
     25 C25        -5.9911    3.7713   10.9993 C.3       1 <0>         0.0000
     26 C26        -2.3083    1.3424    4.9385 C.3       1 <0>         0.0000
     27 N1          0.8012    2.7460    3.1714 N.2       1 <0>         0.0000
     28 N2          4.9672    3.6452    0.0750 N.pl3     1 <0>         0.0000
     29 O1         -4.5026    2.5102   12.4245 O.co2     1 <0>         0.0000
     30 O2         -4.9459    4.6895   12.9310 O.co2     1 <0>         0.0000
     31 O3          0.5520    4.6880    4.2283 O.3       1 <0>         0.0000
     32 O4         -1.9576    1.5256    6.3013 O.3       1 <0>         0.0000
     33 H1          2.2035    6.4988    3.6320 H         1 <0>         0.0000
     34 H2         -3.2370    2.5780   10.5236 H         1 <0>         0.0000
     35 H3          4.1165    7.5042    2.4219 H         1 <0>         0.0000
     36 H4         -1.5150    2.1222    8.7260 H         1 <0>         0.0000
     37 H5          2.8294    2.8153    1.5348 H         1 <0>         0.0000
     38 H6         -4.6762    1.3795    5.8905 H         1 <0>         0.0000
     39 H7         -7.1914    2.2603    6.8575 H         1 <0>         0.0000
     40 H8         -7.1147    0.8113    7.8632 H         1 <0>         0.0000
     41 H9         -7.3730    3.7118    8.7682 H         1 <0>         0.0000
     42 H10        -8.2031    2.3085    9.4493 H         1 <0>         0.0000
     43 H11        -6.2263    1.6690   10.7171 H         1 <0>         0.0000
     44 H12         6.6780    6.2888    1.0376 H         1 <0>         0.0000
     45 H13         5.8076    5.9937   -0.4699 H         1 <0>         0.0000
     46 H14         5.5300    7.4911    0.4527 H         1 <0>         0.0000
     47 H15        -0.9958    4.1508    6.7482 H         1 <0>         0.0000
     48 H16        -1.3489    5.5052    5.6563 H         1 <0>         0.0000
     49 H17        -2.3610    4.0518    5.6525 H         1 <0>         0.0000
     50 H18         4.8400    2.2003   -1.4234 H         1 <0>         0.0000
     51 H19         3.2807    2.8688   -0.9048 H         1 <0>         0.0000
     52 H20         4.1179    1.6647    0.1072 H         1 <0>         0.0000
     53 H21         6.8778    2.8605   -0.3127 H         1 <0>         0.0000
     54 H22         6.2390    2.4336    1.2976 H         1 <0>         0.0000
     55 H23         6.8303    4.0756    0.9738 H         1 <0>         0.0000
     56 H24        -1.2764    1.0341    3.0915 H         1 <0>         0.0000
     57 H25        -0.3542    0.5752    4.5119 H         1 <0>         0.0000
     58 H26        -6.9928    4.0045   11.3865 H         1 <0>         0.0000
     59 H27        -5.6815    4.6520   10.4213 H         1 <0>         0.0000
     60 H28        -2.9853    2.1398    4.6013 H         1 <0>         0.0000
     61 H29        -2.8331    0.3853    4.8060 H         1 <0>         0.0000
@<TRIPOS>BOND
     1    1    3 ar
     2    1    7 ar
     3    1   33 1
     4    2    4 ar
     5    2    8 ar
     6    2   34 1
     7    3   10 ar
     8    3   35 1
     9    4   12 ar
    10    4   36 1
    11    5    7 ar
    12    5   11 ar
    13    5   37 1
    14    6    9 ar
    15    6   12 ar
    16    6   38 1
    17    7   15 1
    18    8    9 ar
    19    8   19 1
    20    9   17 1
    21   10   11 ar
    22   10   20 1
    23   11   28 1
    24   12   32 1
    25   13   14 2
    26   13   24 1
    27   13   27 1
    28   14   21 1
    29   14   31 1
    30   15   27 2
    31   15   31 1
    32   16   25 1
    33   16   29 1
    34   16   30 2
    35   17   18 1
    36   17   39 1
    37   17   40 1
    38   18   19 1
    39   18   41 1
    40   18   42 1
    41   19   25 1
    42   19   43 1
    43   20   44 1
    44   20   45 1
    45   20   46 1
    46   21   47 1
    47   21   48 1
    48   21   49 1
    49   22   28 1
    50   22   50 1
    51   22   51 1
    52   22   52 1
    53   23   28 1
    54   23   53 1
    55   23   54 1
    56   23   55 1
    57   24   26 1
    58   24   56 1
    59   24   57 1
    60   25   58 1
    61   25   59 1
    62   26   32 1
    63   26   60 1
    64   26   61 1
