@<TRIPOS>MOLECULE
*****
   50    51     0     0     0
SMALL
NO_CHARGES

@<TRIPOS>ATOM
      1 C1          1.1475   -1.0620    1.4502 C.2       1 <0>         0.0000
      2 C2          1.1918   -0.8279   -1.5087 C.2       1 <0>         0.0000
      3 C3         -1.2647   -0.9548    0.5998 C.3       1 <0>         0.0000
      4 C4         -2.0693   -0.8044    1.8896 C.3       1 <0>         0.0000
      5 C5         -1.0067    1.1986    2.4990 C.3       1 <0>         0.0000
      6 C6         -0.0222    1.1569    1.3388 C.3       1 <0>         0.0000
      7 C7          0.0990   -0.2417    0.6690 C.3       1 <0>         0.0000
      8 C8          3.6136   -2.7325    1.3260 C.3       1 <0>         0.0000
      9 C9          4.7124   -0.4769    1.0854 C.3       1 <0>         0.0000
     10 C10         3.6082   -1.0887    3.2724 C.3       1 <0>         0.0000
     11 C11         1.3442   -1.9952   -4.2760 C.3       1 <0>         0.0000
     12 C12         2.6187    0.1412   -4.7021 C.3       1 <0>         0.0000
     13 C13         3.5989   -1.5984   -3.1584 C.3       1 <0>         0.0000
     14 C14         3.5857   -1.2641    1.7534 C.3       1 <0>         0.0000
     15 C15         2.3135   -0.9657   -3.6942 C.3       1 <0>         0.0000
     16 N1          0.5807    0.0998   -0.6732 N.am      1 <0>         0.0000
     17 O1          0.8364   -1.9428    2.2271 O.2       1 <0>         0.0000
     18 O2          1.2671   -2.0084   -1.2120 O.2       1 <0>         0.0000
     19 O3         -0.4166    1.9834   -2.2116 O.2       1 <0>         0.0000
     20 O4          1.7141    2.4343   -0.9316 O.2       1 <0>         0.0000
     21 O5         -2.2426    0.5778    2.2212 O.3       1 <0>         0.0000
     22 O6         -0.4779    2.0401    0.2805 O.3       1 <0>         0.0000
     23 O7          2.3741   -0.6042    1.2017 O.3       1 <0>         0.0000
     24 O8          1.6441   -0.2153   -2.6026 O.3       1 <0>         0.0000
     25 S1          0.4286    1.7701   -1.0567 S.o2      1 <0>         0.0000
     26 H1         -1.1046   -2.0090    0.3645 H         1 <0>         0.0000
     27 H2         -1.8301   -0.5000   -0.2179 H         1 <0>         0.0000
     28 H3         -3.0751   -1.2076    1.7539 H         1 <0>         0.0000
     29 H4         -1.5853   -1.3334    2.7194 H         1 <0>         0.0000
     30 H5         -0.5134    0.7217    3.3614 H         1 <0>         0.0000
     31 H6         -1.2158    2.2404    2.7525 H         1 <0>         0.0000
     32 H7          0.9610    1.5043    1.6721 H         1 <0>         0.0000
     33 H8          2.8432   -3.3151    1.8320 H         1 <0>         0.0000
     34 H9          3.4616   -2.8165    0.2469 H         1 <0>         0.0000
     35 H10         4.5925   -3.1547    1.5751 H         1 <0>         0.0000
     36 H11         4.6393    0.5869    1.3285 H         1 <0>         0.0000
     37 H12         4.6621   -0.5851   -0.0016 H         1 <0>         0.0000
     38 H13         5.6817   -0.8492    1.4292 H         1 <0>         0.0000
     39 H14         3.5355   -0.0288    3.5367 H         1 <0>         0.0000
     40 H15         2.7907   -1.6331    3.7470 H         1 <0>         0.0000
     41 H16         4.5552   -1.4712    3.6663 H         1 <0>         0.0000
     42 H17         1.1204   -2.7852   -3.5579 H         1 <0>         0.0000
     43 H18         0.4109   -1.5096   -4.5765 H         1 <0>         0.0000
     44 H19         1.7940   -2.4488   -5.1649 H         1 <0>         0.0000
     45 H20         3.2672    0.8997   -4.2550 H         1 <0>         0.0000
     46 H21         1.6955    0.6272   -5.0286 H         1 <0>         0.0000
     47 H22         3.1225   -0.2820   -5.5759 H         1 <0>         0.0000
     48 H23         4.2232   -0.8385   -2.6782 H         1 <0>         0.0000
     49 H24         3.3841   -2.3911   -2.4407 H         1 <0>         0.0000
     50 H25         4.1640   -2.0264   -3.9924 H         1 <0>         0.0000
@<TRIPOS>BOND
     1    1    7 1
     2    1   17 2
     3    1   23 1
     4    2   16 am
     5    2   18 2
     6    2   24 1
     7    3    4 1
     8    3    7 1
     9    3   26 1
    10    3   27 1
    11    4   21 1
    12    4   28 1
    13    4   29 1
    14    5    6 1
    15    5   21 1
    16    5   30 1
    17    5   31 1
    18    6    7 1
    19    6   22 1
    20    6   32 1
    21    7   16 1
    22    8   14 1
    23    8   33 1
    24    8   34 1
    25    8   35 1
    26    9   14 1
    27    9   36 1
    28    9   37 1
    29    9   38 1
    30   10   14 1
    31   10   39 1
    32   10   40 1
    33   10   41 1
    34   11   15 1
    35   11   42 1
    36   11   43 1
    37   11   44 1
    38   12   15 1
    39   12   45 1
    40   12   46 1
    41   12   47 1
    42   13   15 1
    43   13   48 1
    44   13   49 1
    45   13   50 1
    46   14   23 1
    47   15   24 1
    48   16   25 1
    49   19   25 2
    50   20   25 2
    51   22   25 1
