@<TRIPOS>MOLECULE
*****
   71    75     0     0     0
SMALL
NO_CHARGES

@<TRIPOS>ATOM
      1 C1         -1.7785    0.8688   -2.1785 C.ar      1 <0>         0.0000
      2 C2          4.5969   -0.6660   -5.2088 C.ar      1 <0>         0.0000
      3 C3         -0.9724    0.3629   -3.2017 C.ar      1 <0>         0.0000
      4 C4         -1.3233    0.9010   -0.8592 C.ar      1 <0>         0.0000
      5 C5          3.2308   -0.9575   -5.1265 C.ar      1 <0>         0.0000
      6 C6          0.7486   -0.1856   -1.5916 C.ar      1 <0>         0.0000
      7 C7          5.1934    0.1881   -4.2812 C.ar      1 <0>         0.0000
      8 C8          0.3104   -0.1437   -2.9293 C.ar      1 <0>         0.0000
      9 C9         -0.0609    0.3531   -0.5943 C.ar      1 <0>         0.0000
     10 C10         4.3467    0.7615   -3.3016 C.ar      1 <0>         0.0000
     11 C11         2.4924   -0.3611   -4.1004 C.ar      1 <0>         0.0000
     12 C12         7.1064    1.4319   -3.4380 C.2       1 <0>         0.0000
     13 C13         4.7455    2.4245    0.0160 C.3       1 <0>         0.0000
     14 C14         3.0898    3.2374   -1.6475 C.3       1 <0>         0.0000
     15 C15        -0.2408   -2.1000    1.6838 C.3       1 <0>         0.0000
     16 C16        -1.6905   -0.2372    2.4077 C.3       1 <0>         0.0000
     17 C17         3.7035    2.4956    1.1306 C.3       1 <0>         0.0000
     18 C18         2.0039    3.3372   -0.5892 C.3       1 <0>         0.0000
     19 C19        -0.7818   -2.8990    2.8693 C.3       1 <0>         0.0000
     20 C20        -2.1480   -1.1234    3.5662 C.3       1 <0>         0.0000
     21 C21         6.0896    2.3634   -2.7736 C.3       1 <0>         0.0000
     22 C22         4.0278    2.0712   -1.2885 C.3       1 <0>         0.0000
     23 C23         5.8043    3.5411   -3.7273 C.3       1 <0>         0.0000
     24 C24         7.4963   -0.4186   -4.9937 C.3       1 <0>         0.0000
     25 C25         2.8875    4.8676    1.1852 C.3       1 <0>         0.0000
     26 N1          3.0408    0.4940   -3.2292 N.ar      1 <0>         0.0000
     27 N2          6.5822    0.4261   -4.2227 N.am      1 <0>         0.0000
     28 N3          4.9018    1.6124   -2.3581 N.pl3     1 <0>         0.0000
     29 N4         -0.3236   -0.6620    2.0330 N.pl3     1 <0>         0.0000
     30 N5          1.1159   -0.6291   -3.9643 N.pl3     1 <0>         0.0000
     31 N6          2.5521    3.4533    0.8281 N.4       1 <0>         0.0000
     32 O1          8.3084    1.6362   -3.3141 O.2       1 <0>         0.0000
     33 O2          1.9415   -0.1793    1.0278 O.2       1 <0>         0.0000
     34 O3          0.3852    1.7262    1.6267 O.2       1 <0>         0.0000
     35 O4         -2.1050   -2.4983    3.2057 O.3       1 <0>         0.0000
     36 S1          0.5759    0.3586    1.0835 S.o2      1 <0>         0.0000
     37 H1         -2.7574    1.2725   -2.4199 H         1 <0>         0.0000
     38 H2          5.1918   -1.1387   -5.9821 H         1 <0>         0.0000
     39 H3         -1.3308    0.3887   -4.2281 H         1 <0>         0.0000
     40 H4         -1.9163    1.3592   -0.0759 H         1 <0>         0.0000
     41 H5          2.7693   -1.6470   -5.8262 H         1 <0>         0.0000
     42 H6          1.7094   -0.6132   -1.3404 H         1 <0>         0.0000
     43 H7          5.3090    3.3605   -0.0660 H         1 <0>         0.0000
     44 H8          5.4561    1.6398    0.2929 H         1 <0>         0.0000
     45 H9          2.5941    3.0400   -2.6004 H         1 <0>         0.0000
     46 H10         3.6424    4.1771   -1.7443 H         1 <0>         0.0000
     47 H11         0.8034   -2.3593    1.5026 H         1 <0>         0.0000
     48 H12        -0.8338   -2.3104    0.7833 H         1 <0>         0.0000
     49 H13        -2.3801   -0.3610    1.5619 H         1 <0>         0.0000
     50 H14        -1.6633    0.8095    2.7145 H         1 <0>         0.0000
     51 H15         3.2498    1.5156    1.2754 H         1 <0>         0.0000
     52 H16         4.1344    2.8244    2.0781 H         1 <0>         0.0000
     53 H17         1.3440    4.1942   -0.7366 H         1 <0>         0.0000
     54 H18         1.3910    2.4398   -0.6065 H         1 <0>         0.0000
     55 H19        -0.8306   -3.9584    2.6089 H         1 <0>         0.0000
     56 H20        -0.1137   -2.7721    3.7330 H         1 <0>         0.0000
     57 H21        -1.5157   -0.9372    4.4462 H         1 <0>         0.0000
     58 H22        -3.1862   -0.8960    3.8178 H         1 <0>         0.0000
     59 H23         6.5945    2.7316   -1.8803 H         1 <0>         0.0000
     60 H24         3.3868    1.2128   -1.0763 H         1 <0>         0.0000
     61 H25         5.2535    3.2012   -4.6096 H         1 <0>         0.0000
     62 H26         6.7481    3.9850   -4.0551 H         1 <0>         0.0000
     63 H27         5.2173    4.3197   -3.2344 H         1 <0>         0.0000
     64 H28         7.3766   -0.2405   -6.0674 H         1 <0>         0.0000
     65 H29         7.3052   -1.4734   -4.7766 H         1 <0>         0.0000
     66 H30         8.5132   -0.1627   -4.7033 H         1 <0>         0.0000
     67 H31         3.7026    5.2151    0.5514 H         1 <0>         0.0000
     68 H32         2.0069    5.4916    1.0314 H         1 <0>         0.0000
     69 H33         3.1899    4.9076    2.2318 H         1 <0>         0.0000
     70 H34         0.6374   -0.8418   -4.8307 H         1 <0>         0.0000
     71 H35         1.7712    3.1288    1.4240 H         1 <0>         0.0000
@<TRIPOS>BOND
     1    1    3 ar
     2    1    4 ar
     3    1   37 1
     4    2    5 ar
     5    2    7 ar
     6    2   38 1
     7    3    8 ar
     8    3   39 1
     9    4    9 ar
    10    4   40 1
    11    5   11 ar
    12    5   41 1
    13    6    8 ar
    14    6    9 ar
    15    6   42 1
    16    7   10 ar
    17    7   27 1
    18    8   30 1
    19    9   36 1
    20   10   26 ar
    21   10   28 1
    22   11   26 ar
    23   11   30 1
    24   12   21 1
    25   12   27 am
    26   12   32 2
    27   13   17 1
    28   13   22 1
    29   13   43 1
    30   13   44 1
    31   14   18 1
    32   14   22 1
    33   14   45 1
    34   14   46 1
    35   15   19 1
    36   15   29 1
    37   15   47 1
    38   15   48 1
    39   16   20 1
    40   16   29 1
    41   16   49 1
    42   16   50 1
    43   17   31 1
    44   17   51 1
    45   17   52 1
    46   18   31 1
    47   18   53 1
    48   18   54 1
    49   19   35 1
    50   19   55 1
    51   19   56 1
    52   20   35 1
    53   20   57 1
    54   20   58 1
    55   21   23 1
    56   21   28 1
    57   21   59 1
    58   22   28 1
    59   22   60 1
    60   23   61 1
    61   23   62 1
    62   23   63 1
    63   24   27 1
    64   24   64 1
    65   24   65 1
    66   24   66 1
    67   25   31 1
    68   25   67 1
    69   25   68 1
    70   25   69 1
    71   29   36 1
    72   30   70 1
    73   31   71 1
    74   33   36 2
    75   34   36 2
