@<TRIPOS>MOLECULE
*****
   20    20     0     0     0
SMALL
NO_CHARGES

@<TRIPOS>ATOM
      1 C1          1.8851   -1.0363   -0.1124 C.ar      1 <0>         0.0000
      2 C2          0.8066   -0.4630    0.5610 C.ar      1 <0>         0.0000
      3 C3          2.8783   -1.6520    2.0022 C.ar      1 <0>         0.0000
      4 C4          1.7997   -1.0786    2.6757 C.ar      1 <0>         0.0000
      5 C5          2.9210   -1.6309    0.6081 C.ar      1 <0>         0.0000
      6 C6          0.7638   -0.4841    1.9551 C.ar      1 <0>         0.0000
      7 C7          1.7947   -1.1285    4.1695 C.3       1 <0>         0.0000
      8 C8          5.2760   -1.6792    0.2030 C.3       1 <0>         0.0000
      9 O1          2.1192    0.1564    4.6829 O.3       1 <0>         0.0000
     10 O2          3.9725   -2.1919   -0.0492 O.3       1 <0>         0.0000
     11 F1          5.2289   -0.3684    0.5222 F         1 <0>         0.0000
     12 F2          6.0195   -1.8080   -0.9194 F         1 <0>         0.0000
     13 F3          5.8877   -2.3700    1.1883 F         1 <0>         0.0000
     14 Br1        -0.7219    0.3099    2.8261 Br        1 <0>         0.0000
     15 H1          1.9132   -1.0170   -1.1985 H         1 <0>         0.0000
     16 H2          0.0092   -0.0033   -0.0176 H         1 <0>         0.0000
     17 H3          3.6878   -2.1186    2.5585 H         1 <0>         0.0000
     18 H4          0.8104   -1.4243    4.5542 H         1 <0>         0.0000
     19 H5          2.5282   -1.8552    4.5414 H         1 <0>         0.0000
     20 H6          2.1057    0.0829    5.6509 H         1 <0>         0.0000
@<TRIPOS>BOND
     1    1    2 ar
     2    1    5 ar
     3    1   15 1
     4    2    6 ar
     5    2   16 1
     6    3    4 ar
     7    3    5 ar
     8    3   17 1
     9    4    6 ar
    10    4    7 1
    11    5   10 1
    12    6   14 1
    13    7    9 1
    14    7   18 1
    15    7   19 1
    16    8   10 1
    17    8   11 1
    18    8   12 1
    19    8   13 1
    20    9   20 1
