@<TRIPOS>MOLECULE
*****
   14    14     0     0     0
SMALL
NO_CHARGES

@<TRIPOS>ATOM
      1 C1         -1.6028   -0.1955    0.1273 C.2       1 <0>         0.0000
      2 C2          0.4394   -0.6040    0.1937 C.2       1 <0>         0.0000
      3 C3          1.7427   -1.2926    0.2554 C.2       1 <0>         0.0000
      4 C4          0.3208    0.8742    0.1493 C.3       1 <0>         0.0000
      5 N1          1.4142    1.8305   -1.8995 N.1       1 <0>         0.0000
      6 N2         -1.1493    1.0219    0.1035 N.2       1 <0>         0.0000
      7 N3         -0.6904   -1.2193    0.1810 N.2       1 <0>         0.0000
      8 N4          0.9396    1.4153   -1.0102 N.1       1 <0>         0.0000
      9 N5          2.4762   -0.9558    1.3638 N.am      1 <0>         0.0000
     10 O1          2.0898   -2.0767   -0.6177 O.2       1 <0>         0.0000
     11 H1         -2.6801   -0.4178    0.1046 H         1 <0>         0.0000
     12 H2          0.7309    1.3254    1.0565 H         1 <0>         0.0000
     13 H3          3.3883   -1.3825    1.4887 H         1 <0>         0.0000
     14 H4          2.1484   -0.2989    2.0652 H         1 <0>         0.0000
@<TRIPOS>BOND
     1    1    6 2
     2    1    7 1
     3    1   11 1
     4    2    3 1
     5    2    4 1
     6    2    7 2
     7    3    9 am
     8    3   10 2
     9    4    6 1
    10    4    8 1
    11    4   12 1
    12    5    8 3
    13    9   13 1
    14    9   14 1
