@<TRIPOS>MOLECULE
*****
   40    41     0     0     0
SMALL
NO_CHARGES

@<TRIPOS>ATOM
      1 C1          5.0849   -0.0163    5.7691 C.ar      1 <0>         0.0000
      2 C2          5.0133    0.6934    4.5594 C.ar      1 <0>         0.0000
      3 C3          3.2917   -1.4483    5.0298 C.ar      1 <0>         0.0000
      4 C4          4.2329   -1.0879    6.0098 C.ar      1 <0>         0.0000
      5 C5          4.0804    0.3389    3.5866 C.ar      1 <0>         0.0000
      6 C6          3.2016   -0.7505    3.8275 C.ar      1 <0>         0.0000
      7 C7         -0.5977   -0.4524    3.0519 C.3       1 <0>         0.0000
      8 C8         -0.3457   -0.9226    1.5882 C.3       1 <0>         0.0000
      9 C9          0.1865   -1.4330    3.9560 C.3       1 <0>         0.0000
     10 C10         0.5704   -2.1634    1.7002 C.3       1 <0>         0.0000
     11 C11         1.2830   -1.9979    3.0425 C.3       1 <0>         0.0000
     12 C12         6.5169   -3.0862    6.5619 C.3       1 <0>         0.0000
     13 C13         4.7810    2.0686    2.1026 C.3       1 <0>         0.0000
     14 C14         5.0713   -3.2463    7.0414 C.3       1 <0>         0.0000
     15 C15         4.3437   -1.9093    7.2738 C.3       1 <0>         0.0000
     16 O1          3.0114   -2.1423    7.7658 O.3       1 <0>         0.0000
     17 O2          2.3273   -1.0305    2.8186 O.3       1 <0>         0.0000
     18 O3          3.9224    0.9716    2.3835 O.3       1 <0>         0.0000
     19 H1          5.8137    0.2819    6.5188 H         1 <0>         0.0000
     20 H2          5.6859    1.5277    4.3950 H         1 <0>         0.0000
     21 H3          2.6152   -2.2661    5.2439 H         1 <0>         0.0000
     22 H4         -0.2238    0.5653    3.1909 H         1 <0>         0.0000
     23 H5         -1.6615   -0.4412    3.3068 H         1 <0>         0.0000
     24 H6         -1.2758   -1.1575    1.0621 H         1 <0>         0.0000
     25 H7          0.1580   -0.1365    1.0202 H         1 <0>         0.0000
     26 H8          0.5859   -0.9614    4.8564 H         1 <0>         0.0000
     27 H9         -0.4516   -2.2646    4.2784 H         1 <0>         0.0000
     28 H10        -0.0228   -3.0843    1.7379 H         1 <0>         0.0000
     29 H11         1.2829   -2.2547    0.8764 H         1 <0>         0.0000
     30 H12         1.7220   -2.9348    3.4039 H         1 <0>         0.0000
     31 H13         6.5569   -2.5783    5.5942 H         1 <0>         0.0000
     32 H14         7.1080   -2.4965    7.2726 H         1 <0>         0.0000
     33 H15         7.0016   -4.0620    6.4551 H         1 <0>         0.0000
     34 H16         4.4973    2.4226    1.1103 H         1 <0>         0.0000
     35 H17         5.8350    1.7620    2.0908 H         1 <0>         0.0000
     36 H18         4.6478    2.8806    2.8292 H         1 <0>         0.0000
     37 H19         5.0629   -3.8114    7.9854 H         1 <0>         0.0000
     38 H20         4.4931   -3.8298    6.3155 H         1 <0>         0.0000
     39 H21         4.9126   -1.3285    8.0157 H         1 <0>         0.0000
     40 H22         3.0754   -2.7757    8.4984 H         1 <0>         0.0000
@<TRIPOS>BOND
     1    1    2 ar
     2    1    4 ar
     3    1   19 1
     4    2    5 ar
     5    2   20 1
     6    3    4 ar
     7    3    6 ar
     8    3   21 1
     9    4   15 1
    10    5    6 ar
    11    5   18 1
    12    6   17 1
    13    7    8 1
    14    7    9 1
    15    7   22 1
    16    7   23 1
    17    8   10 1
    18    8   24 1
    19    8   25 1
    20    9   11 1
    21    9   26 1
    22    9   27 1
    23   10   11 1
    24   10   28 1
    25   10   29 1
    26   11   17 1
    27   11   30 1
    28   12   14 1
    29   12   31 1
    30   12   32 1
    31   12   33 1
    32   13   18 1
    33   13   34 1
    34   13   35 1
    35   13   36 1
    36   14   15 1
    37   14   37 1
    38   14   38 1
    39   15   16 1
    40   15   39 1
    41   16   40 1
