@<TRIPOS>MOLECULE
*****
   14    14     0     0     0
SMALL
NO_CHARGES

@<TRIPOS>ATOM
      1 C1          0.7817    0.1125    3.2545 C.1       1 <0>         0.0000
      2 C2         -1.6724    3.1921    1.1668 C.ar      1 <0>         0.0000
      3 C3         -0.7832    2.2696    1.7195 C.ar      1 <0>         0.0000
      4 C4         -2.9785    3.3160    1.6521 C.ar      1 <0>         0.0000
      5 C5         -2.5096    1.5590    3.2825 C.ar      1 <0>         0.0000
      6 C6         -1.2059    1.4515    2.7808 C.ar      1 <0>         0.0000
      7 C7         -3.3636    2.4903    2.7039 C.ar      1 <0>         0.0000
      8 N1         -0.3571    0.5094    3.3731 N.2       1 <0>         0.0000
      9 O1          1.8643   -0.3572    3.2391 O.2       1 <0>         0.0000
     10 F1         -4.6253    2.5940    3.1897 F         1 <0>         0.0000
     11 H1         -1.3447    3.8240    0.3463 H         1 <0>         0.0000
     12 H2          0.2292    2.1797    1.3367 H         1 <0>         0.0000
     13 H3         -3.6831    4.0277    1.2346 H         1 <0>         0.0000
     14 H4         -2.8448    0.9318    4.1014 H         1 <0>         0.0000
@<TRIPOS>BOND
     1    1    8 2
     2    1    9 2
     3    2    3 ar
     4    2    4 ar
     5    2   11 1
     6    3    6 ar
     7    3   12 1
     8    4    7 ar
     9    4   13 1
    10    5    6 ar
    11    5    7 ar
    12    5   14 1
    13    6    8 1
    14    7   10 1
