@<TRIPOS>MOLECULE
*****
   56    59     0     0     0
SMALL
NO_CHARGES

@<TRIPOS>ATOM
      1 C1          2.2544   -6.1543   -0.2597 C.ar      1 <0>         0.0000
      2 C2          1.5878   -6.1123   -1.4842 C.ar      1 <0>         0.0000
      3 C3          2.4576   -4.9795    0.4644 C.ar      1 <0>         0.0000
      4 C4          1.1243   -4.8957   -1.9847 C.ar      1 <0>         0.0000
      5 C5          1.9941   -3.7628   -0.0361 C.ar      1 <0>         0.0000
      6 C6          2.7972    1.3619   -3.6820 C.ar      1 <0>         0.0000
      7 C7          2.1609    0.6705   -2.6459 C.ar      1 <0>         0.0000
      8 C8          3.1855   -1.4296   -3.3259 C.ar      1 <0>         0.0000
      9 C9          4.7190   -1.0883   -5.4153 C.2       1 <0>         0.0000
     10 C10         3.8317   -0.7491   -4.3713 C.ar      1 <0>         0.0000
     11 C11         1.3274   -3.7209   -1.2606 C.ar      1 <0>         0.0000
     12 C12         3.6255    0.6174   -4.5246 C.ar      1 <0>         0.0000
     13 C13         2.3504   -0.7015   -2.4691 C.ar      1 <0>         0.0000
     14 C14        -5.1934   -1.5030   -2.2125 C.3       1 <0>         0.0000
     15 C15        -4.3719   -0.5541   -1.3845 C.3       1 <0>         0.0000
     16 C16        -3.7937   -1.8662   -1.8196 C.3       1 <0>         0.0000
     17 C17         3.9668    2.3622   -7.6073 C.3       1 <0>         0.0000
     18 C18         5.9352    2.8289   -6.0862 C.3       1 <0>         0.0000
     19 C19        -0.7048   -1.4717    0.0504 C.3       1 <0>         0.0000
     20 C20         0.8233   -2.3993   -1.8048 C.3       1 <0>         0.0000
     21 C21         4.5026    2.2996   -6.1756 C.3       1 <0>         0.0000
     22 C22        -0.6154   -2.0789   -1.3491 C.3       1 <0>         0.0000
     23 N1          5.0546   -0.0405   -6.1713 N.2       1 <0>         0.0000
     24 N2          4.3791    0.9759   -5.6096 N.pl3     1 <0>         0.0000
     25 N3         -1.2416   -1.1850   -2.3012 N.pl3     1 <0>         0.0000
     26 O1         -2.4081   -3.0081   -3.7239 O.2       1 <0>         0.0000
     27 O2         -3.1100   -0.6020   -3.9967 O.2       1 <0>         0.0000
     28 O3          1.7129   -1.3432   -1.4493 O.3       1 <0>         0.0000
     29 S1         -2.6413   -1.6919   -3.1625 S.o2      1 <0>         0.0000
     30 H1          2.6166   -7.1014    0.1295 H         1 <0>         0.0000
     31 H2          1.4304   -7.0266   -2.0488 H         1 <0>         0.0000
     32 H3          2.9776   -5.0118    1.4174 H         1 <0>         0.0000
     33 H4          0.6059   -4.8726   -2.9396 H         1 <0>         0.0000
     34 H5          2.1567   -2.8526    0.5351 H         1 <0>         0.0000
     35 H6          2.6479    2.4274   -3.8179 H         1 <0>         0.0000
     36 H7          1.5086    1.2183   -1.9696 H         1 <0>         0.0000
     37 H8          3.3297   -2.4967   -3.1837 H         1 <0>         0.0000
     38 H9          5.1345   -2.0567   -5.6560 H         1 <0>         0.0000
     39 H10        -6.0054   -2.0244   -1.7196 H         1 <0>         0.0000
     40 H11        -5.4064   -1.2239   -3.2369 H         1 <0>         0.0000
     41 H12        -4.0338    0.3616   -1.8536 H         1 <0>         0.0000
     42 H13        -4.6361   -0.4428   -0.3396 H         1 <0>         0.0000
     43 H14        -3.6378   -2.6425   -1.0846 H         1 <0>         0.0000
     44 H15         4.5426    1.7255   -8.2874 H         1 <0>         0.0000
     45 H16         4.0137    3.3870   -7.9909 H         1 <0>         0.0000
     46 H17         2.9220    2.0346   -7.6478 H         1 <0>         0.0000
     47 H18         6.6180    2.2092   -6.6777 H         1 <0>         0.0000
     48 H19         6.2846    2.8191   -5.0482 H         1 <0>         0.0000
     49 H20         6.0147    3.8573   -6.4545 H         1 <0>         0.0000
     50 H21        -0.1161   -0.5531    0.1273 H         1 <0>         0.0000
     51 H22        -0.3189   -2.1746    0.7977 H         1 <0>         0.0000
     52 H23        -1.7396   -1.2436    0.3274 H         1 <0>         0.0000
     53 H24         0.8573   -2.4592   -2.9010 H         1 <0>         0.0000
     54 H25         3.8741    2.9608   -5.5652 H         1 <0>         0.0000
     55 H26        -1.2209   -2.9931   -1.3701 H         1 <0>         0.0000
     56 H27        -1.2208   -0.1787   -2.0438 H         1 <0>         0.0000
@<TRIPOS>BOND
     1    1    3 ar
     2    1    2 ar
     3    1   30 1
     4    2    4 ar
     5    2   31 1
     6    3    5 ar
     7    3   32 1
     8    4   11 ar
     9    4   33 1
    10    5   11 ar
    11    5   34 1
    12    6    7 ar
    13    6   12 ar
    14    6   35 1
    15    7   13 ar
    16    7   36 1
    17    8   10 ar
    18    8   13 ar
    19    8   37 1
    20    9   10 1
    21    9   23 2
    22    9   38 1
    23   10   12 ar
    24   11   20 1
    25   12   24 1
    26   13   28 1
    27   14   15 1
    28   14   16 1
    29   14   39 1
    30   14   40 1
    31   15   16 1
    32   15   41 1
    33   15   42 1
    34   16   29 1
    35   16   43 1
    36   17   21 1
    37   17   44 1
    38   17   45 1
    39   17   46 1
    40   18   21 1
    41   18   47 1
    42   18   48 1
    43   18   49 1
    44   19   22 1
    45   19   50 1
    46   19   51 1
    47   19   52 1
    48   20   22 1
    49   20   28 1
    50   20   53 1
    51   21   24 1
    52   21   54 1
    53   22   25 1
    54   22   55 1
    55   23   24 1
    56   25   29 1
    57   25   56 1
    58   26   29 2
    59   27   29 2
