@<TRIPOS>MOLECULE
*****
   21    21     0     0     0
SMALL
NO_CHARGES

@<TRIPOS>ATOM
      1 C1          4.5630    1.7310    1.0710 C.ar      1 <0>         0.0000
      2 C2          5.8090    1.2060    0.7470 C.ar      1 <0>         0.0000
      3 C3          3.4380    1.0390    0.6560 C.ar      1 <0>         0.0000
      4 C4          5.8890    0.0190    0.0230 C.ar      1 <0>         0.0000
      5 C5          3.5980   -0.1520   -0.0630 C.ar      1 <0>         0.0000
      6 C6          1.4240   -1.2090    0.3000 C.2       1 <0>         0.0000
      7 C7          0.2960   -2.0700   -0.2180 C.3       1 <0>         0.0000
      8 C8          2.5750   -1.4320   -1.9070 C.3       1 <0>         0.0000
      9 N1          4.8040   -0.6420   -0.3780 N.ar      1 <0>         0.0000
     10 N2          2.4890   -0.8910   -0.5330 N.am      1 <0>         0.0000
     11 O1          1.4000   -0.8020    1.4420 O.2       1 <0>         0.0000
     12 H1          4.4760    2.6330    1.6220 H         1 <0>         0.0000
     13 H2          6.6930    1.7040    1.0490 H         1 <0>         0.0000
     14 H3          2.4680    1.4000    0.8780 H         1 <0>         0.0000
     15 H4          6.8370   -0.3860   -0.2280 H         1 <0>         0.0000
     16 H5         -0.3760   -2.2420    0.6110 H         1 <0>         0.0000
     17 H6          0.7270   -2.9940   -0.5720 H         1 <0>         0.0000
     18 H7         -0.1920   -1.5180   -1.0070 H         1 <0>         0.0000
     19 H8          1.6110   -1.3300   -2.3850 H         1 <0>         0.0000
     20 H9          2.8830   -2.4660   -1.8280 H         1 <0>         0.0000
     21 H10         3.3120   -0.8570   -2.4530 H         1 <0>         0.0000
@<TRIPOS>BOND
     1    1    2 ar
     2    1    3 ar
     3    1   12 1
     4    2    4 ar
     5    2   13 1
     6    3    5 ar
     7    3   14 1
     8    4    9 ar
     9    4   15 1
    10    5    9 ar
    11    5   10 1
    12    6    7 1
    13    6   10 am
    14    6   11 2
    15    7   16 1
    16    7   17 1
    17    7   18 1
    18    8   10 1
    19    8   19 1
    20    8   20 1
    21    8   21 1
