@<TRIPOS>MOLECULE
*****
   28    30     0     0     0
SMALL
NO_CHARGES

@<TRIPOS>ATOM
      1 C1         -0.1915   -0.2565    2.6357 C.ar      1 <0>         0.0000
      2 C2         -0.6930   -1.0051    1.5580 C.ar      1 <0>         0.0000
      3 C3         -0.3648   -0.7057    3.9502 C.ar      1 <0>         0.0000
      4 C4         -1.3836   -2.2085    1.7556 C.ar      1 <0>         0.0000
      5 C5         -1.0494   -1.9038    4.1560 C.ar      1 <0>         0.0000
      6 C6         -1.5558   -2.6315    3.0725 C.ar      1 <0>         0.0000
      7 C7          0.9435   -3.8089    5.4020 C.cat     1 <0>         0.0000
      8 C8          2.5319   -4.4174    3.8473 C.3       1 <0>         0.0000
      9 C9          2.9167   -4.9219    5.2494 C.3       1 <0>         0.0000
     10 C10        -2.3342   -3.7477    4.8835 C.3       1 <0>         0.0000
     11 C11        -1.3280   -2.6921    5.4117 C.3       1 <0>         0.0000
     12 N1          1.1553   -3.9545    4.0967 N.pl3     1 <0>         0.0000
     13 N2         -0.0998   -3.2793    6.0232 N.pl3     1 <0>         0.0000
     14 O1         -2.1648   -3.8013    3.4458 O.3       1 <0>         0.0000
     15 O2          1.9367   -4.2792    6.1437 O.3       1 <0>         0.0000
     16 H1          0.3261    0.6786    2.4468 H         1 <0>         0.0000
     17 H2         -0.5529   -0.6396    0.5447 H         1 <0>         0.0000
     18 H3          0.0275   -0.1338    4.7872 H         1 <0>         0.0000
     19 H4         -1.7844   -2.7830    0.9267 H         1 <0>         0.0000
     20 H5          3.1570   -3.5868    3.5081 H         1 <0>         0.0000
     21 H6          2.5430   -5.2129    3.1013 H         1 <0>         0.0000
     22 H7          2.7919   -5.9991    5.3670 H         1 <0>         0.0000
     23 H8          3.9046   -4.6118    5.5833 H         1 <0>         0.0000
     24 H9         -2.1741   -4.7491    5.2848 H         1 <0>         0.0000
     25 H10        -3.3572   -3.4229    5.0947 H         1 <0>         0.0000
     26 H11        -1.7684   -2.0921    6.2092 H         1 <0>         0.0000
     27 H12         0.5721   -3.5038    3.3965 H         1 <0>         0.0000
     28 H13        -0.0589   -3.3431    7.0362 H         1 <0>         0.0000
@<TRIPOS>BOND
     1    1    2 ar
     2    1    3 ar
     3    1   16 1
     4    2    4 ar
     5    2   17 1
     6    3    5 ar
     7    3   18 1
     8    4    6 ar
     9    4   19 1
    10    5    6 ar
    11    5   11 1
    12    6   14 1
    13    7   12 2
    14    7   13 1
    15    7   15 1
    16    8    9 1
    17    8   12 1
    18    8   20 1
    19    8   21 1
    20    9   15 1
    21    9   22 1
    22    9   23 1
    23   10   11 1
    24   10   14 1
    25   10   24 1
    26   10   25 1
    27   11   13 1
    28   11   26 1
    29   12   27 1
    30   13   28 1
