@<TRIPOS>MOLECULE
*****
   35    36     0     0     0
SMALL
NO_CHARGES

@<TRIPOS>ATOM
      1 C1          6.2728   -2.4665    7.0253 C.1       1 <0>         0.0000
      2 C2          5.3227   -0.0756    5.4178 C.ar      1 <0>         0.0000
      3 C3          4.8160    0.6048    4.3092 C.ar      1 <0>         0.0000
      4 C4          3.1964   -1.1739    5.7175 C.ar      1 <0>         0.0000
      5 C5          4.5176   -0.9681    6.1289 C.ar      1 <0>         0.0000
      6 C6          3.4951    0.3912    3.8889 C.ar      1 <0>         0.0000
      7 C7          2.6786   -0.5118    4.6059 C.ar      1 <0>         0.0000
      8 C8         -0.4639   -0.9834    1.9767 C.3       1 <0>         0.0000
      9 C9          0.8792   -1.2762    1.2473 C.3       1 <0>         0.0000
     10 C10        -0.4407   -1.8646    3.2431 C.3       1 <0>         0.0000
     11 C11         1.7306   -2.1095    2.2409 C.3       1 <0>         0.0000
     12 C12         1.0409   -1.9459    3.6007 C.3       1 <0>         0.0000
     13 C13         3.7046    1.9163    2.0628 C.3       1 <0>         0.0000
     14 C14         5.0535   -1.6795    7.3510 C.3       1 <0>         0.0000
     15 N1          7.2291   -3.0917    6.8066 N.1       1 <0>         0.0000
     16 O1          5.3410   -0.7133    8.3653 O.3       1 <0>         0.0000
     17 O2          1.3710   -0.6763    4.2264 O.3       1 <0>         0.0000
     18 O3          2.9178    0.9940    2.8110 O.3       1 <0>         0.0000
     19 H1          6.3489    0.0963    5.7297 H         1 <0>         0.0000
     20 H2          5.4594    1.2935    3.7738 H         1 <0>         0.0000
     21 H3          2.5420   -1.8455    6.2679 H         1 <0>         0.0000
     22 H4         -0.5081    0.0689    2.2688 H         1 <0>         0.0000
     23 H5         -1.3365   -1.1885    1.3496 H         1 <0>         0.0000
     24 H6          0.7211   -1.8263    0.3147 H         1 <0>         0.0000
     25 H7          1.3886   -0.3441    0.9946 H         1 <0>         0.0000
     26 H8         -1.0371   -1.4640    4.0671 H         1 <0>         0.0000
     27 H9         -0.8007   -2.8764    3.0218 H         1 <0>         0.0000
     28 H10         1.7109   -3.1733    1.9766 H         1 <0>         0.0000
     29 H11         2.7802   -1.8068    2.2712 H         1 <0>         0.0000
     30 H12         1.2794   -2.7564    4.3003 H         1 <0>         0.0000
     31 H13         3.0568    2.2759    1.2624 H         1 <0>         0.0000
     32 H14         4.5858    1.4300    1.6267 H         1 <0>         0.0000
     33 H15         4.0220    2.7643    2.6816 H         1 <0>         0.0000
     34 H16         4.3032   -2.4003    7.7028 H         1 <0>         0.0000
     35 H17         5.7253   -1.1729    9.1313 H         1 <0>         0.0000
@<TRIPOS>BOND
     1    1   14 1
     2    1   15 3
     3    2    3 ar
     4    2    5 ar
     5    2   19 1
     6    3    6 ar
     7    3   20 1
     8    4    5 ar
     9    4    7 ar
    10    4   21 1
    11    5   14 1
    12    6    7 ar
    13    6   18 1
    14    7   17 1
    15    8    9 1
    16    8   10 1
    17    8   22 1
    18    8   23 1
    19    9   11 1
    20    9   24 1
    21    9   25 1
    22   10   12 1
    23   10   26 1
    24   10   27 1
    25   11   12 1
    26   11   28 1
    27   11   29 1
    28   12   17 1
    29   12   30 1
    30   13   18 1
    31   13   31 1
    32   13   32 1
    33   13   33 1
    34   14   16 1
    35   14   34 1
    36   16   35 1
