@<TRIPOS>MOLECULE
*****
   18    18     0     0     0
SMALL
NO_CHARGES

@<TRIPOS>ATOM
      1 C1          2.3744   -1.2513   -0.3287 C.ar      1 <0>         0.0000
      2 C2          1.2267   -0.6580    0.1956 C.ar      1 <0>         0.0000
      3 C3          1.9627   -1.2210    2.4457 C.ar      1 <0>         0.0000
      4 C4          3.1225   -1.7788    1.9067 C.ar      1 <0>         0.0000
      5 C5          3.3373   -1.7981    0.5215 C.ar      1 <0>         0.0000
      6 C6          1.0426   -0.6532    1.5760 C.ar      1 <0>         0.0000
      7 C7          5.3685   -1.7761   -0.7191 C.3       1 <0>         0.0000
      8 N1          4.0999   -2.3420    2.8591 N.pl3     1 <0>         0.0000
      9 O1          3.6445   -2.7921    3.9157 O.3       1 <0>         0.0000
     10 O2          5.2918   -2.3044    2.5563 O.2       1 <0>         0.0000
     11 O3          4.4401   -2.4672    0.0105 O.3       1 <0>         0.0000
     12 F1         -0.0725   -0.0899    2.0864 F         1 <0>         0.0000
     13 F2          4.8975   -1.5021   -1.9703 F         1 <0>         0.0000
     14 F3          6.4252   -2.5807   -0.8567 F         1 <0>         0.0000
     15 Cl1         5.8754   -0.2226    0.0154 Cl        1 <0>         0.0000
     16 H1          2.5288   -1.2981   -1.4005 H         1 <0>         0.0000
     17 H2          0.4748   -0.2174   -0.4512 H         1 <0>         0.0000
     18 H3          1.7949   -1.2301    3.5163 H         1 <0>         0.0000
@<TRIPOS>BOND
     1    1    2 ar
     2    1    5 ar
     3    1   16 1
     4    2    6 ar
     5    2   17 1
     6    3    4 ar
     7    3    6 ar
     8    3   18 1
     9    4    5 ar
    10    4    8 1
    11    5   11 1
    12    6   12 1
    13    7   11 1
    14    7   13 1
    15    7   14 1
    16    7   15 1
    17    8    9 1
    18    8   10 2
