@<TRIPOS>MOLECULE
*****
   51    54     0     0     0
SMALL
NO_CHARGES

@<TRIPOS>ATOM
      1 C1         -0.6291   -2.0739    4.5147 C.1       1 <0>         0.0000
      2 C2          0.9317   -0.6785    5.7440 C.ar      1 <0>         0.0000
      3 C3          0.3539   -1.0362    4.5141 C.ar      1 <0>         0.0000
      4 C4          1.8072    0.3950    5.8509 C.ar      1 <0>         0.0000
      5 C5          2.0583    1.1202    4.6630 C.ar      1 <0>         0.0000
      6 C6          0.7237   -0.2828    3.3587 C.ar      1 <0>         0.0000
      7 C7          0.6630   -0.0033   -1.5415 C.2       1 <0>         0.0000
      8 C8         -1.5776    1.7434   -0.6320 C.3       1 <0>         0.0000
      9 C9          2.4850    3.7290   -2.7637 C.3       1 <0>         0.0000
     10 C10         3.0404    3.1628   -4.0549 C.3       1 <0>         0.0000
     11 C11        -1.5132    0.2368   -0.3214 C.3       1 <0>         0.0000
     12 C12        -0.0446   -1.7945    0.1131 C.3       1 <0>         0.0000
     13 C13        -0.3274    2.2470   -1.3827 C.3       1 <0>         0.0000
     14 C14        -0.2521   -1.8441    1.6320 C.3       1 <0>         0.0000
     15 C15         0.6931    0.3027    0.9765 C.3       1 <0>         0.0000
     16 C16         2.4158    2.2410   -3.0338 C.3       1 <0>         0.0000
     17 C17        -0.0709   -0.2939   -0.2268 C.3       1 <0>         0.0000
     18 C18         2.4335    0.7827    7.1682 C.3       1 <0>         0.0000
     19 C19         2.9529    2.3342    4.6798 C.3       1 <0>         0.0000
     20 C20         1.0919    1.5717   -3.3432 C.3       1 <0>         0.0000
     21 N1         -1.4456   -2.9066    4.5721 N.1       1 <0>         0.0000
     22 N2          1.5424    0.7852    3.4780 N.ar      1 <0>         0.0000
     23 N3          0.2858   -0.5537    2.0963 N.pl3     1 <0>         0.0000
     24 N4          0.3421    1.1864   -2.1435 N.am      1 <0>         0.0000
     25 O1          1.4686   -0.7970   -2.0341 O.2       1 <0>         0.0000
     26 H1          0.6622   -1.2543    6.6257 H         1 <0>         0.0000
     27 H2         -2.4732    1.9467   -1.2263 H         1 <0>         0.0000
     28 H3         -1.6785    2.3229    0.2908 H         1 <0>         0.0000
     29 H4          3.1855    4.0847   -2.0136 H         1 <0>         0.0000
     30 H5          1.5641    4.3034   -2.8237 H         1 <0>         0.0000
     31 H6          2.4854    3.3558   -4.9697 H         1 <0>         0.0000
     32 H7          4.1179    3.1306   -4.1845 H         1 <0>         0.0000
     33 H8         -2.0543    0.0207    0.6051 H         1 <0>         0.0000
     34 H9         -2.0168   -0.3233   -1.1162 H         1 <0>         0.0000
     35 H10         0.9299   -2.2013   -0.1632 H         1 <0>         0.0000
     36 H11        -0.8100   -2.3581   -0.4264 H         1 <0>         0.0000
     37 H12        -0.6062    3.0303   -2.0919 H         1 <0>         0.0000
     38 H13         0.3819    2.7064   -0.6835 H         1 <0>         0.0000
     39 H14        -1.3080   -1.9461    1.8984 H         1 <0>         0.0000
     40 H15         0.2854   -2.6781    2.0922 H         1 <0>         0.0000
     41 H16         1.7777    0.2515    0.8180 H         1 <0>         0.0000
     42 H17         0.4430    1.3424    1.1906 H         1 <0>         0.0000
     43 H18         3.0998    1.6116   -2.4703 H         1 <0>         0.0000
     44 H19         3.5282    0.7568    7.1194 H         1 <0>         0.0000
     45 H20         2.1502    1.7978    7.4701 H         1 <0>         0.0000
     46 H21         2.1214    0.1009    7.9640 H         1 <0>         0.0000
     47 H22         3.9663    2.0714    5.0053 H         1 <0>         0.0000
     48 H23         3.0055    2.7692    3.6809 H         1 <0>         0.0000
     49 H24         2.5812    3.0904    5.3807 H         1 <0>         0.0000
     50 H25         1.2641    0.6646   -3.9250 H         1 <0>         0.0000
     51 H26         0.4572    2.2426   -3.9338 H         1 <0>         0.0000
@<TRIPOS>BOND
     1    1    3 1
     2    1   21 3
     3    2    3 ar
     4    2    4 ar
     5    2   26 1
     6    3    6 ar
     7    4    5 ar
     8    4   18 1
     9    5   19 1
    10    5   22 ar
    11    6   22 ar
    12    6   23 1
    13    7   17 1
    14    7   24 am
    15    7   25 2
    16    8   11 1
    17    8   13 1
    18    8   27 1
    19    8   28 1
    20    9   10 1
    21    9   16 1
    22    9   29 1
    23    9   30 1
    24   10   16 1
    25   10   31 1
    26   10   32 1
    27   11   17 1
    28   11   33 1
    29   11   34 1
    30   12   14 1
    31   12   17 1
    32   12   35 1
    33   12   36 1
    34   13   24 1
    35   13   37 1
    36   13   38 1
    37   14   23 1
    38   14   39 1
    39   14   40 1
    40   15   17 1
    41   15   23 1
    42   15   41 1
    43   15   42 1
    44   16   20 1
    45   16   43 1
    46   18   44 1
    47   18   45 1
    48   18   46 1
    49   19   47 1
    50   19   48 1
    51   19   49 1
    52   20   24 1
    53   20   50 1
    54   20   51 1
