@<TRIPOS>MOLECULE
*****
   36    38     0     0     0
SMALL
NO_CHARGES

@<TRIPOS>ATOM
      1 C1          0.2484   -5.1788    2.0594 C.ar      1 <0>         0.0000
      2 C2          0.7432   -3.8813    2.2256 C.ar      1 <0>         0.0000
      3 C3         -1.1226   -5.4328    2.1487 C.ar      1 <0>         0.0000
      4 C4         -1.5021   -3.0597    2.5847 C.ar      1 <0>         0.0000
      5 C5         -0.1244   -2.8126    2.4896 C.ar      1 <0>         0.0000
      6 C6         -1.9667   -4.3572    2.4104 C.ar      1 <0>         0.0000
      7 C7         -0.4609   -0.3370    2.0168 C.2       1 <0>         0.0000
      8 C8          1.0401    1.5127   -3.0796 C.3       1 <0>         0.0000
      9 C9         -0.0951    0.5106   -3.2077 C.3       1 <0>         0.0000
     10 C10         1.2885   -0.1969   -1.1212 C.3       1 <0>         0.0000
     11 C11        -0.3901    1.6747   -0.8969 C.3       1 <0>         0.0000
     12 C12         0.3793   -1.0707   -0.2457 C.3       1 <0>         0.0000
     13 C13        -1.2562    0.7544   -0.0278 C.3       1 <0>         0.0000
     14 C14         0.4723    0.8596   -1.8470 C.3       1 <0>         0.0000
     15 C15         0.4077   -1.4052    2.6875 C.3       1 <0>         0.0000
     16 N1         -0.4209   -0.2396    0.6525 N.am      1 <0>         0.0000
     17 O1         -1.1862    0.3827    2.7104 O.2       1 <0>         0.0000
     18 F1         -3.3032   -4.5864    2.4991 F         1 <0>         0.0000
     19 H1          0.9330   -5.9980    1.8566 H         1 <0>         0.0000
     20 H2          1.8129   -3.6996    2.1513 H         1 <0>         0.0000
     21 H3         -1.5353   -6.4287    2.0207 H         1 <0>         0.0000
     22 H4         -2.2046   -2.2570    2.7905 H         1 <0>         0.0000
     23 H5          2.0281    1.2067   -3.4143 H         1 <0>         0.0000
     24 H6          0.8144    2.5617   -3.2529 H         1 <0>         0.0000
     25 H7         -1.0804    0.8889   -3.4670 H         1 <0>         0.0000
     26 H8          0.1339   -0.4651   -3.6285 H         1 <0>         0.0000
     27 H9          2.0391    0.2891   -0.4836 H         1 <0>         0.0000
     28 H10         1.8251   -0.8321   -1.8355 H         1 <0>         0.0000
     29 H11        -1.0358    2.3629   -1.4542 H         1 <0>         0.0000
     30 H12         0.2491    2.2824   -0.2436 H         1 <0>         0.0000
     31 H13        -0.3018   -1.6489   -0.8857 H         1 <0>         0.0000
     32 H14         0.9641   -1.7893    0.3233 H         1 <0>         0.0000
     33 H15        -1.7981    1.3108    0.7355 H         1 <0>         0.0000
     34 H16        -1.9857    0.2260   -0.6576 H         1 <0>         0.0000
     35 H17         0.3944   -1.1510    3.7504 H         1 <0>         0.0000
     36 H18         1.4473   -1.3466    2.3519 H         1 <0>         0.0000
@<TRIPOS>BOND
     1    1    2 ar
     2    1    3 ar
     3    1   19 1
     4    2    5 ar
     5    2   20 1
     6    3    6 ar
     7    3   21 1
     8    4    5 ar
     9    4    6 ar
    10    4   22 1
    11    5   15 1
    12    6   18 1
    13    7   15 1
    14    7   16 am
    15    7   17 2
    16    8    9 1
    17    8   14 1
    18    8   23 1
    19    8   24 1
    20    9   14 1
    21    9   25 1
    22    9   26 1
    23   10   12 1
    24   10   14 1
    25   10   27 1
    26   10   28 1
    27   11   13 1
    28   11   14 1
    29   11   29 1
    30   11   30 1
    31   12   16 1
    32   12   31 1
    33   12   32 1
    34   13   16 1
    35   13   33 1
    36   13   34 1
    37   15   35 1
    38   15   36 1
