@<TRIPOS>MOLECULE
*****
   21    22     0     0     0
SMALL
NO_CHARGES

@<TRIPOS>ATOM
      1 C1          0.7727   -1.6860    0.9921 C.ar      1 <0>         0.0000
      2 C2          1.0158   -2.2425    2.2449 C.ar      1 <0>         0.0000
      3 C3         -0.0231    0.2754    2.1368 C.ar      1 <0>         0.0000
      4 C4          0.2432   -0.4022    0.9529 C.ar      1 <0>         0.0000
      5 C5          0.7238   -1.5030    3.4111 C.ar      1 <0>         0.0000
      6 C6          0.6713   -1.3053    6.0085 C.2       1 <0>         0.0000
      7 C7          0.8087   -3.6251    4.9137 C.3       1 <0>         0.0000
      8 C8          2.1856   -3.0584    4.8985 C.3       1 <0>         0.0000
      9 C9          0.9845   -2.0996    4.7719 C.3       1 <0>         0.0000
     10 N1          0.2138   -0.2677    3.3345 N.ar      1 <0>         0.0000
     11 O1          0.2132   -0.1885    6.0947 O.2       1 <0>         0.0000
     12 O2          0.9790   -2.0236    7.1434 O.3       1 <0>         0.0000
     13 F1         -0.0137    0.1896   -0.2393 F         1 <0>         0.0000
     14 H1          0.9848   -2.2249    0.0734 H         1 <0>         0.0000
     15 H2          1.4292   -3.2442    2.2954 H         1 <0>         0.0000
     16 H3         -0.4382    1.2818    2.1133 H         1 <0>         0.0000
     17 H4          0.4315   -4.1364    4.0347 H         1 <0>         0.0000
     18 H5          0.4154   -3.9809    5.8580 H         1 <0>         0.0000
     19 H6          2.7331   -3.0269    5.8325 H         1 <0>         0.0000
     20 H7          2.7968   -3.1629    4.0087 H         1 <0>         0.0000
     21 H8          0.7444   -1.4331    7.8836 H         1 <0>         0.0000
@<TRIPOS>BOND
     1    1    2 ar
     2    1    4 ar
     3    1   14 1
     4    2    5 ar
     5    2   15 1
     6    3    4 ar
     7    3   10 ar
     8    3   16 1
     9    4   13 1
    10    5    9 1
    11    5   10 ar
    12    6    9 1
    13    6   11 2
    14    6   12 1
    15    7    8 1
    16    7    9 1
    17    7   17 1
    18    7   18 1
    19    8    9 1
    20    8   19 1
    21    8   20 1
    22   12   21 1
