@<TRIPOS>MOLECULE
*****
   41    43     0     0     0
SMALL
NO_CHARGES

@<TRIPOS>ATOM
      1 C1         -3.2986    7.8366   -3.3003 C.ar      1 <0>         0.0000
      2 C2         -3.3458    7.6051   -4.6763 C.ar      1 <0>         0.0000
      3 C3         -2.4745    4.1611   -1.2046 C.ar      1 <0>         0.0000
      4 C4         -3.5968    3.6740   -0.5398 C.ar      1 <0>         0.0000
      5 C5         -3.6285    4.2011   -4.7515 C.2       1 <0>         0.0000
      6 C6         -4.7738    3.4488   -2.6563 C.ar      1 <0>         0.0000
      7 C7         -5.5605    6.6876   -4.4014 C.ar      1 <0>         0.0000
      8 C8         -3.6461    3.9468   -3.3360 C.ar      1 <0>         0.0000
      9 C9         -2.5725    4.8150   -5.3441 C.2       1 <0>         0.0000
     10 C10        -4.3671    7.5006   -2.4567 C.ar      1 <0>         0.0000
     11 C11        -5.5303    6.9408   -3.0248 C.ar      1 <0>         0.0000
     12 C12        -4.4737    6.9912   -5.2267 C.ar      1 <0>         0.0000
     13 C13        -2.5075    4.3024   -2.5934 C.ar      1 <0>         0.0000
     14 C14        -4.7404    3.3269   -1.2755 C.ar      1 <0>         0.0000
     15 C15        -1.3783    5.1514   -4.5530 C.2       1 <0>         0.0000
     16 C16        -2.6017    5.2474   -6.7714 C.2       1 <0>         0.0000
     17 C17        -4.2601    7.7091   -0.9654 C.3       1 <0>         0.0000
     18 C18        -6.7051    6.5569   -2.1584 C.3       1 <0>         0.0000
     19 C19        -1.5359    4.6963   -7.6868 C.3       1 <0>         0.0000
     20 N1         -3.4818    6.0308   -7.3036 N.2       1 <0>         0.0000
     21 N2         -4.5349    6.5839   -6.6057 N.pl3     1 <0>         0.0000
     22 O1         -0.3840    5.7084   -4.9698 O.2       1 <0>         0.0000
     23 O2         -1.3983    4.8125   -3.2029 O.3       1 <0>         0.0000
     24 Br1        -6.2975    2.7085   -0.3443 Br        1 <0>         0.0000
     25 H1         -2.4007    8.2750   -2.8711 H         1 <0>         0.0000
     26 H2         -2.4923    7.8459   -5.3028 H         1 <0>         0.0000
     27 H3         -1.5795    4.4486   -0.6619 H         1 <0>         0.0000
     28 H4         -3.5904    3.5715    0.5403 H         1 <0>         0.0000
     29 H5         -4.5135    3.9688   -5.3378 H         1 <0>         0.0000
     30 H6         -5.6684    3.1946   -3.2160 H         1 <0>         0.0000
     31 H7         -6.4247    6.1971   -4.8437 H         1 <0>         0.0000
     32 H8         -5.0528    8.3661   -0.5889 H         1 <0>         0.0000
     33 H9         -4.3501    6.7584   -0.4269 H         1 <0>         0.0000
     34 H10        -3.2987    8.1547   -0.6977 H         1 <0>         0.0000
     35 H11        -6.4193    5.8218   -1.3980 H         1 <0>         0.0000
     36 H12        -7.1112    7.4246   -1.6255 H         1 <0>         0.0000
     37 H13        -7.5121    6.1226   -2.7542 H         1 <0>         0.0000
     38 H14        -1.5501    3.5994   -7.6789 H         1 <0>         0.0000
     39 H15        -1.7104    5.0487   -8.7052 H         1 <0>         0.0000
     40 H16        -0.5430    5.0141   -7.3563 H         1 <0>         0.0000
     41 H17        -4.9944    7.2557   -7.2093 H         1 <0>         0.0000
@<TRIPOS>BOND
     1    1    2 ar
     2    1   10 ar
     3    1   25 1
     4    2   12 ar
     5    2   26 1
     6    3    4 ar
     7    3   13 ar
     8    3   27 1
     9    4   14 ar
    10    4   28 1
    11    5    8 1
    12    5    9 2
    13    5   29 1
    14    6    8 ar
    15    6   14 ar
    16    6   30 1
    17    7   11 ar
    18    7   12 ar
    19    7   31 1
    20    8   13 ar
    21    9   15 1
    22    9   16 1
    23   10   11 ar
    24   10   17 1
    25   11   18 1
    26   12   21 1
    27   13   23 1
    28   14   24 1
    29   15   22 2
    30   15   23 1
    31   16   19 1
    32   16   20 2
    33   17   32 1
    34   17   33 1
    35   17   34 1
    36   18   35 1
    37   18   36 1
    38   18   37 1
    39   19   38 1
    40   19   39 1
    41   19   40 1
    42   20   21 1
    43   21   41 1
