@<TRIPOS>MOLECULE
*****
   18    18     0     0     0
SMALL
NO_CHARGES

@<TRIPOS>ATOM
      1 C1          1.8773   -1.2927   -0.1355 C.ar      1 <0>         0.0000
      2 C2          0.8019   -0.7276    0.5491 C.ar      1 <0>         0.0000
      3 C3          1.8400   -1.3253    2.6670 C.ar      1 <0>         0.0000
      4 C4          2.9227   -1.8597    1.9668 C.ar      1 <0>         0.0000
      5 C5          2.9527   -1.8409    0.5643 C.ar      1 <0>         0.0000
      6 C6          0.8065   -0.7503    1.9413 C.ar      1 <0>         0.0000
      7 C7          4.9604   -1.7161   -0.6975 C.3       1 <0>         0.0000
      8 N1          4.0064   -2.4592    2.7703 N.pl3     1 <0>         0.0000
      9 O1          3.6914   -2.9039    3.8786 O.3       1 <0>         0.0000
     10 O2          5.1439   -2.4644    2.3007 O.2       1 <0>         0.0000
     11 O3          3.9735   -2.4794   -0.1316 O.3       1 <0>         0.0000
     12 F1         -0.2348   -0.2114    2.6092 F         1 <0>         0.0000
     13 F2          6.0380   -2.4923   -0.8277 F         1 <0>         0.0000
     14 F3          5.2734   -0.6426    0.0512 F         1 <0>         0.0000
     15 Cl1         4.5053   -1.1107   -2.3476 Cl        1 <0>         0.0000
     16 H1          1.8893   -1.3187   -1.2190 H         1 <0>         0.0000
     17 H2         -0.0359   -0.2871    0.0182 H         1 <0>         0.0000
     18 H3          1.8142   -1.3631    3.7497 H         1 <0>         0.0000
@<TRIPOS>BOND
     1    1    2 ar
     2    1    5 ar
     3    1   16 1
     4    2    6 ar
     5    2   17 1
     6    3    4 ar
     7    3    6 ar
     8    3   18 1
     9    4    5 ar
    10    4    8 1
    11    5   11 1
    12    6   12 1
    13    7   11 1
    14    7   13 1
    15    7   14 1
    16    7   15 1
    17    8    9 1
    18    8   10 2
