@<TRIPOS>MOLECULE
*****
   36    38     0     0     0
SMALL
NO_CHARGES

@<TRIPOS>ATOM
      1 C1          0.7270   -1.3292    6.6534 C.ar      1 <0>         0.0000
      2 C2          0.8865   -1.2825    5.2661 C.ar      1 <0>         0.0000
      3 C3         -0.2522   -2.1442    7.2295 C.ar      1 <0>         0.0000
      4 C4         -0.9161   -2.8661    4.9956 C.ar      1 <0>         0.0000
      5 C5          0.0678   -2.0484    4.4267 C.ar      1 <0>         0.0000
      6 C6         -1.0549   -2.8960    6.3780 C.ar      1 <0>         0.0000
      7 C7         -0.6797   -0.9165    2.2892 C.2       1 <0>         0.0000
      8 C8          1.3687    1.5469   -2.1099 C.3       1 <0>         0.0000
      9 C9          0.3214    0.5785   -2.6336 C.3       1 <0>         0.0000
     10 C10         1.3140   -0.4930   -0.4820 C.3       1 <0>         0.0000
     11 C11        -0.4575    1.3009   -0.2559 C.3       1 <0>         0.0000
     12 C12         0.2868   -1.5099    0.0412 C.3       1 <0>         0.0000
     13 C13        -1.4273    0.2286    0.2606 C.3       1 <0>         0.0000
     14 C14         0.6044    0.6756   -1.1480 C.3       1 <0>         0.0000
     15 C15         0.2259   -1.9863    2.9277 C.3       1 <0>         0.0000
     16 N1         -0.6869   -0.8555    0.9159 N.am      1 <0>         0.0000
     17 O1         -1.3739   -0.1752    2.9832 O.2       1 <0>         0.0000
     18 F1         -2.0132   -3.6968    6.9185 F         1 <0>         0.0000
     19 H1          1.3676   -0.7288    7.2938 H         1 <0>         0.0000
     20 H2          1.6465   -0.6378    4.8315 H         1 <0>         0.0000
     21 H3         -0.3969   -2.2017    8.3039 H         1 <0>         0.0000
     22 H4         -1.5789   -3.4677    4.3797 H         1 <0>         0.0000
     23 H5          2.4141    1.3135   -2.2955 H         1 <0>         0.0000
     24 H6          1.1365    2.6084   -2.1329 H         1 <0>         0.0000
     25 H7         -0.6113    0.9921   -3.0079 H         1 <0>         0.0000
     26 H8          0.6674   -0.3012   -3.1703 H         1 <0>         0.0000
     27 H9          1.9179   -0.1291    0.3604 H         1 <0>         0.0000
     28 H10         1.9960   -0.9851   -1.1852 H         1 <0>         0.0000
     29 H11        -1.0153    2.0706   -0.8016 H         1 <0>         0.0000
     30 H12         0.0169    1.7902    0.6043 H         1 <0>         0.0000
     31 H13        -0.2568   -1.9464   -0.8068 H         1 <0>         0.0000
     32 H14         0.7786   -2.3293    0.5628 H         1 <0>         0.0000
     33 H15        -2.1308    0.6395    0.9832 H         1 <0>         0.0000
     34 H16        -1.9909   -0.2015   -0.5772 H         1 <0>         0.0000
     35 H17         1.2684   -1.7634    2.6748 H         1 <0>         0.0000
     36 H18        -0.0008   -2.9619    2.4851 H         1 <0>         0.0000
@<TRIPOS>BOND
     1    1    2 ar
     2    1    3 ar
     3    1   19 1
     4    2    5 ar
     5    2   20 1
     6    3    6 ar
     7    3   21 1
     8    4    5 ar
     9    4    6 ar
    10    4   22 1
    11    5   15 1
    12    6   18 1
    13    7   15 1
    14    7   16 am
    15    7   17 2
    16    8    9 1
    17    8   14 1
    18    8   23 1
    19    8   24 1
    20    9   14 1
    21    9   25 1
    22    9   26 1
    23   10   12 1
    24   10   14 1
    25   10   27 1
    26   10   28 1
    27   11   13 1
    28   11   14 1
    29   11   29 1
    30   11   30 1
    31   12   16 1
    32   12   31 1
    33   12   32 1
    34   13   16 1
    35   13   33 1
    36   13   34 1
    37   15   35 1
    38   15   36 1
