@<TRIPOS>MOLECULE
*****
   41    43     0     0     0
SMALL
NO_CHARGES

@<TRIPOS>ATOM
      1 C1         -6.1786    2.1730   -7.5780 C.ar      1 <0>         0.0000
      2 C2         -5.5204    3.3600   -7.9047 C.ar      1 <0>         0.0000
      3 C3         -4.4084    0.4160   -4.0632 C.ar      1 <0>         0.0000
      4 C4         -5.2278    0.5449   -2.9448 C.ar      1 <0>         0.0000
      5 C5         -3.8171    3.9751   -5.0094 C.2       1 <0>         0.0000
      6 C6         -5.0924    2.9682   -3.1049 C.ar      1 <0>         0.0000
      7 C7         -6.7378    4.4670   -6.1394 C.ar      1 <0>         0.0000
      8 C8         -4.2690    2.8470   -4.2403 C.ar      1 <0>         0.0000
      9 C9         -3.1454    3.8080   -6.1774 C.2       1 <0>         0.0000
     10 C10        -7.1163    2.1080   -6.5375 C.ar      1 <0>         0.0000
     11 C11        -7.4203    3.2860   -5.8238 C.ar      1 <0>         0.0000
     12 C12        -5.7766    4.5098   -7.1537 C.ar      1 <0>         0.0000
     13 C13        -3.9416    1.5632   -4.7080 C.ar      1 <0>         0.0000
     14 C14        -5.5663    1.8250   -2.4796 C.ar      1 <0>         0.0000
     15 C15        -2.7866    2.4557   -6.6330 C.2       1 <0>         0.0000
     16 C16        -2.8212    4.9508   -7.0794 C.2       1 <0>         0.0000
     17 C17        -7.7650    0.7949   -6.1718 C.3       1 <0>         0.0000
     18 C18        -8.4181    3.2674   -4.6915 C.3       1 <0>         0.0000
     19 C19        -1.3681    5.1798   -7.4163 C.3       1 <0>         0.0000
     20 N1         -3.6751    5.7853   -7.5753 N.2       1 <0>         0.0000
     21 N2         -5.0310    5.7283   -7.3294 N.pl3     1 <0>         0.0000
     22 O1         -2.2004    2.1840   -7.6602 O.2       1 <0>         0.0000
     23 O2         -3.1671    1.3928   -5.8185 O.3       1 <0>         0.0000
     24 Br1        -6.7384    1.9906   -0.9720 Br        1 <0>         0.0000
     25 H1         -5.9436    1.2706   -8.1375 H         1 <0>         0.0000
     26 H2         -4.7756    3.3755   -8.6947 H         1 <0>         0.0000
     27 H3         -4.1386   -0.5603   -4.4533 H         1 <0>         0.0000
     28 H4         -5.6088   -0.3375   -2.4416 H         1 <0>         0.0000
     29 H5         -4.0925    4.9754   -4.6861 H         1 <0>         0.0000
     30 H6         -5.3734    3.9543   -2.7490 H         1 <0>         0.0000
     31 H7         -6.9141    5.3675   -5.5555 H         1 <0>         0.0000
     32 H8         -7.5274    0.5115   -5.1398 H         1 <0>         0.0000
     33 H9         -8.8575    0.8467   -6.2456 H         1 <0>         0.0000
     34 H10        -7.4217   -0.0101   -6.8266 H         1 <0>         0.0000
     35 H11        -9.4101    2.9524   -5.0358 H         1 <0>         0.0000
     36 H12        -8.1178    2.5678   -3.9038 H         1 <0>         0.0000
     37 H13        -8.5204    4.2561   -4.2368 H         1 <0>         0.0000
     38 H14        -0.9577    4.3206   -7.9544 H         1 <0>         0.0000
     39 H15        -1.2724    6.0751   -8.0336 H         1 <0>         0.0000
     40 H16        -0.7759    5.3090   -6.5019 H         1 <0>         0.0000
     41 H17        -5.4883    6.4014   -7.9334 H         1 <0>         0.0000
@<TRIPOS>BOND
     1    1    2 ar
     2    1   10 ar
     3    1   25 1
     4    2   12 ar
     5    2   26 1
     6    3    4 ar
     7    3   13 ar
     8    3   27 1
     9    4   14 ar
    10    4   28 1
    11    5    8 1
    12    5    9 2
    13    5   29 1
    14    6    8 ar
    15    6   14 ar
    16    6   30 1
    17    7   11 ar
    18    7   12 ar
    19    7   31 1
    20    8   13 ar
    21    9   15 1
    22    9   16 1
    23   10   11 ar
    24   10   17 1
    25   11   18 1
    26   12   21 1
    27   13   23 1
    28   14   24 1
    29   15   22 2
    30   15   23 1
    31   16   19 1
    32   16   20 2
    33   17   32 1
    34   17   33 1
    35   17   34 1
    36   18   35 1
    37   18   36 1
    38   18   37 1
    39   19   38 1
    40   19   39 1
    41   19   40 1
    42   20   21 1
    43   21   41 1
