@<TRIPOS>MOLECULE
*****
   21    22     0     0     0
SMALL
NO_CHARGES

@<TRIPOS>ATOM
      1 C1          1.8330   -1.4259   -0.0177 C.ar      1 <0>         0.0000
      2 C2          1.9275   -0.4220    2.5926 C.ar      1 <0>         0.0000
      3 C3          0.6683   -0.8701    0.5398 C.ar      1 <0>         0.0000
      4 C4          3.0074   -1.4972    0.7140 C.ar      1 <0>         0.0000
      5 C5          0.7500   -0.3779    1.8504 C.ar      1 <0>         0.0000
      6 C6          3.0549   -0.9929    2.0151 C.ar      1 <0>         0.0000
      7 C7         -0.6205   -0.8658   -0.2318 C.2       1 <0>         0.0000
      8 C8         -1.7800   -0.1987   -2.4281 C.3       1 <0>         0.0000
      9 C9         -1.3932   -1.6337   -2.5687 C.3       1 <0>         0.0000
     10 C10        -0.5312   -0.6976   -1.7115 C.3       1 <0>         0.0000
     11 O1         -1.6950   -1.0215    0.3358 O.2       1 <0>         0.0000
     12 F1          4.1143   -2.0525    0.1784 F         1 <0>         0.0000
     13 F2         -0.3190    0.1989    2.4270 F         1 <0>         0.0000
     14 F3          4.2043   -1.0592    2.7085 F         1 <0>         0.0000
     15 H1          1.8248   -1.8392   -1.0210 H         1 <0>         0.0000
     16 H2          1.9654   -0.0186    3.5989 H         1 <0>         0.0000
     17 H3         -1.6195    0.4703   -3.2676 H         1 <0>         0.0000
     18 H4         -2.6234    0.0321   -1.7857 H         1 <0>         0.0000
     19 H5         -1.9755   -2.3670   -2.0201 H         1 <0>         0.0000
     20 H6         -0.9595   -1.9756   -3.5033 H         1 <0>         0.0000
     21 H7          0.4251   -0.3943   -2.1228 H         1 <0>         0.0000
@<TRIPOS>BOND
     1    1    3 ar
     2    1    4 ar
     3    1   15 1
     4    2    5 ar
     5    2    6 ar
     6    2   16 1
     7    3    5 ar
     8    3    7 1
     9    4    6 ar
    10    4   12 1
    11    5   13 1
    12    6   14 1
    13    7   10 1
    14    7   11 2
    15    8    9 1
    16    8   10 1
    17    8   17 1
    18    8   18 1
    19    9   10 1
    20    9   19 1
    21    9   20 1
    22   10   21 1
