@<TRIPOS>MOLECULE
*****
   36    38     0     0     0
SMALL
NO_CHARGES

@<TRIPOS>ATOM
      1 C1          3.2386    0.1515    4.0997 C.ar      1 <0>         0.0000
      2 C2          2.4416   -0.9125    3.6649 C.ar      1 <0>         0.0000
      3 C3          2.6581    1.3621    4.4863 C.ar      1 <0>         0.0000
      4 C4          0.4556    0.4237    4.0043 C.ar      1 <0>         0.0000
      5 C5          1.0475   -0.7860    3.6095 C.ar      1 <0>         0.0000
      6 C6          1.2707    1.4646    4.4299 C.ar      1 <0>         0.0000
      7 C7         -0.8635   -1.4286    2.0943 C.2       1 <0>         0.0000
      8 C8          0.9439    2.3748   -1.3492 C.3       1 <0>         0.0000
      9 C9          0.7831    1.1134   -2.1816 C.3       1 <0>         0.0000
     10 C10         1.4191    0.3472    0.2229 C.3       1 <0>         0.0000
     11 C11        -0.9818    0.9747   -0.2730 C.3       1 <0>         0.0000
     12 C12         0.9555   -1.1088    0.3841 C.3       1 <0>         0.0000
     13 C13        -1.3681   -0.5023   -0.1082 C.3       1 <0>         0.0000
     14 C14         0.4731    1.1014   -0.6982 C.3       1 <0>         0.0000
     15 C15         0.1728   -1.9211    3.1092 C.3       1 <0>         0.0000
     16 N1         -0.4421   -1.1649    0.8175 N.am      1 <0>         0.0000
     17 O1         -2.0331   -1.2604    2.4530 O.2       1 <0>         0.0000
     18 F1          0.6900    2.6349    4.8030 F         1 <0>         0.0000
     19 H1          4.3189    0.0401    4.1348 H         1 <0>         0.0000
     20 H2          2.9096   -1.8462    3.3620 H         1 <0>         0.0000
     21 H3          3.2519    2.2058    4.8238 H         1 <0>         0.0000
     22 H4         -0.6220    0.5575    3.9707 H         1 <0>         0.0000
     23 H5          1.9530    2.7174   -1.1348 H         1 <0>         0.0000
     24 H6          0.2211    3.1738   -1.4920 H         1 <0>         0.0000
     25 H7         -0.0466    1.0697   -2.8824 H         1 <0>         0.0000
     26 H8          1.6854    0.6140   -2.5255 H         1 <0>         0.0000
     27 H9          1.4432    0.8243    1.2095 H         1 <0>         0.0000
     28 H10         2.4413    0.3624   -0.1730 H         1 <0>         0.0000
     29 H11        -1.6425    1.4478   -1.0086 H         1 <0>         0.0000
     30 H12        -1.1373    1.4883    0.6842 H         1 <0>         0.0000
     31 H13         1.0290   -1.6263   -0.5813 H         1 <0>         0.0000
     32 H14         1.5927   -1.6407    1.0871 H         1 <0>         0.0000
     33 H15        -2.3762   -0.6120    0.2883 H         1 <0>         0.0000
     34 H16        -1.3096   -1.0159   -1.0761 H         1 <0>         0.0000
     35 H17         0.7926   -2.7261    2.7053 H         1 <0>         0.0000
     36 H18        -0.4116   -2.3360    3.9340 H         1 <0>         0.0000
@<TRIPOS>BOND
     1    1    2 ar
     2    1    3 ar
     3    1   19 1
     4    2    5 ar
     5    2   20 1
     6    3    6 ar
     7    3   21 1
     8    4    5 ar
     9    4    6 ar
    10    4   22 1
    11    5   15 1
    12    6   18 1
    13    7   15 1
    14    7   16 am
    15    7   17 2
    16    8    9 1
    17    8   14 1
    18    8   23 1
    19    8   24 1
    20    9   14 1
    21    9   25 1
    22    9   26 1
    23   10   12 1
    24   10   14 1
    25   10   27 1
    26   10   28 1
    27   11   13 1
    28   11   14 1
    29   11   29 1
    30   11   30 1
    31   12   16 1
    32   12   31 1
    33   12   32 1
    34   13   16 1
    35   13   33 1
    36   13   34 1
    37   15   35 1
    38   15   36 1
