@<TRIPOS>MOLECULE
*****
   49    52     0     0     0
SMALL
NO_CHARGES

@<TRIPOS>ATOM
      1 C1         -8.4758    2.6896   -4.9395 C.2       1 <0>         0.0000
      2 C2         -6.4778    1.5694   -4.1597 C.2       1 <0>         0.0000
      3 C3         -3.0836   -0.9274    0.0217 C.2       1 <0>         0.0000
      4 C4         -3.8484   -0.9366   -4.7634 C.3       1 <0>         0.0000
      5 C5         -2.8848   -1.5784   -2.4253 C.3       1 <0>         0.0000
      6 C6         -5.2959   -0.5779   -4.4187 C.3       1 <0>         0.0000
      7 C7         -3.4009   -2.2151    2.0762 C.3       1 <0>         0.0000
      8 C8         -1.6344   -2.9256    0.5641 C.3       1 <0>         0.0000
      9 C9         -4.0702   -3.5796    1.9164 C.3       1 <0>         0.0000
     10 C10        -2.3217   -4.2866    0.4197 C.3       1 <0>         0.0000
     11 C11        -4.5975    1.0375   -2.7086 C.3       1 <0>         0.0000
     12 C12        -2.3033   -0.7050   -1.2862 C.3       1 <0>         0.0000
     13 C13        -2.8654   -0.6225   -3.6295 C.3       1 <0>         0.0000
     14 C14        -3.1128    0.7348   -2.9537 C.3       1 <0>         0.0000
     15 C15        -9.7264    3.1717   -5.6059 C.3       1 <0>         0.0000
     16 C16        -3.6802   -5.9363    1.5400 C.3       1 <0>         0.0000
     17 N1         -7.8874    3.2965   -3.9566 N.2       1 <0>         0.0000
     18 N2         -6.7565    2.6668   -3.4966 N.2       1 <0>         0.0000
     19 N3         -5.3637    0.8023   -3.9427 N.pl3     1 <0>         0.0000
     20 N4         -2.6166   -1.8908    0.8821 N.am      1 <0>         0.0000
     21 N5         -3.0724   -4.6140    1.6294 N.3       1 <0>         0.0000
     22 O1         -4.0961   -0.2698    0.2584 O.2       1 <0>         0.0000
     23 O2         -2.4098    0.6561   -1.7073 O.3       1 <0>         0.0000
     24 S1         -7.6535    1.2023   -5.4338 S.3       1 <0>         0.0000
     25 H1         -3.7894   -1.9970   -5.0356 H         1 <0>         0.0000
     26 H2         -3.5607   -0.3602   -5.6496 H         1 <0>         0.0000
     27 H3         -2.2945   -2.4823   -2.5978 H         1 <0>         0.0000
     28 H4         -3.9059   -1.8879   -2.1844 H         1 <0>         0.0000
     29 H5         -5.9117   -0.6900   -5.3131 H         1 <0>         0.0000
     30 H6         -5.7049   -1.2587   -3.6550 H         1 <0>         0.0000
     31 H7         -4.1433   -1.4317    2.2201 H         1 <0>         0.0000
     32 H8         -2.7241   -2.2369    2.9385 H         1 <0>         0.0000
     33 H9         -0.9045   -2.9778    1.3810 H         1 <0>         0.0000
     34 H10        -1.0957   -2.6874   -0.3510 H         1 <0>         0.0000
     35 H11        -4.5877   -3.8410    2.8457 H         1 <0>         0.0000
     36 H12        -4.8317   -3.5152    1.1153 H         1 <0>         0.0000
     37 H13        -2.9763   -4.2649   -0.4753 H         1 <0>         0.0000
     38 H14        -1.5615   -5.0588    0.2561 H         1 <0>         0.0000
     39 H15        -4.9797    0.4147   -1.8912 H         1 <0>         0.0000
     40 H16        -4.7227    2.0756   -2.4079 H         1 <0>         0.0000
     41 H17        -1.2362   -0.8991   -1.1426 H         1 <0>         0.0000
     42 H18        -1.8483   -0.6113   -4.0378 H         1 <0>         0.0000
     43 H19        -2.6661    1.5542   -3.5245 H         1 <0>         0.0000
     44 H20        -9.5619    3.3725   -6.6699 H         1 <0>         0.0000
     45 H21       -10.5336    2.4360   -5.5237 H         1 <0>         0.0000
     46 H22       -10.0414    4.0961   -5.1174 H         1 <0>         0.0000
     47 H23        -4.1904   -6.1706    2.4795 H         1 <0>         0.0000
     48 H24        -2.9032   -6.6905    1.3787 H         1 <0>         0.0000
     49 H25        -4.4171   -6.0184    0.7186 H         1 <0>         0.0000
@<TRIPOS>BOND
     1    1   15 1
     2    1   17 2
     3    1   24 1
     4    2   18 2
     5    2   19 1
     6    2   24 1
     7    3   12 1
     8    3   20 am
     9    3   22 2
    10    4    6 1
    11    4   13 1
    12    4   25 1
    13    4   26 1
    14    5   12 1
    15    5   13 1
    16    5   27 1
    17    5   28 1
    18    6   19 1
    19    6   29 1
    20    6   30 1
    21    7    9 1
    22    7   20 1
    23    7   31 1
    24    7   32 1
    25    8   10 1
    26    8   20 1
    27    8   33 1
    28    8   34 1
    29    9   21 1
    30    9   35 1
    31    9   36 1
    32   10   21 1
    33   10   37 1
    34   10   38 1
    35   11   14 1
    36   11   19 1
    37   11   39 1
    38   11   40 1
    39   12   23 1
    40   12   41 1
    41   13   14 1
    42   13   42 1
    43   14   23 1
    44   14   43 1
    45   15   44 1
    46   15   45 1
    47   15   46 1
    48   16   21 1
    49   16   47 1
    50   16   48 1
    51   16   49 1
    52   17   18 1
