@<TRIPOS>MOLECULE
*****
   49    52     0     0     0
SMALL
NO_CHARGES

@<TRIPOS>ATOM
      1 C1          3.8901   -4.0158   -6.1492 C.2       1 <0>         0.0000
      2 C2          2.4268   -3.1626   -4.4269 C.2       1 <0>         0.0000
      3 C3         -3.0397   -1.7033   -0.0410 C.2       1 <0>         0.0000
      4 C4          1.1747   -0.4959   -2.1116 C.3       1 <0>         0.0000
      5 C5         -1.2950   -0.3388   -1.3767 C.3       1 <0>         0.0000
      6 C6          2.1120   -1.0721   -3.1756 C.3       1 <0>         0.0000
      7 C7         -3.1946   -2.3963    2.2969 C.3       1 <0>         0.0000
      8 C8         -1.0271   -2.6232    1.2039 C.3       1 <0>         0.0000
      9 C9         -3.0927   -3.8491    2.7578 C.3       1 <0>         0.0000
     10 C10        -0.9550   -4.0739    1.6797 C.3       1 <0>         0.0000
     11 C11         0.6797   -3.0974   -2.7167 C.3       1 <0>         0.0000
     12 C12        -2.2650   -1.5344   -1.3509 C.3       1 <0>         0.0000
     13 C13        -0.2921   -0.7231   -2.4874 C.3       1 <0>         0.0000
     14 C14        -0.5800   -2.2330   -2.7450 C.3       1 <0>         0.0000
     15 C15         4.9038   -4.2835   -7.2174 C.3       1 <0>         0.0000
     16 C16        -1.5832   -5.6100    3.4325 C.3       1 <0>         0.0000
     17 N1          3.0476   -4.8928   -5.6987 N.2       1 <0>         0.0000
     18 N2          2.2117   -4.4272   -4.7146 N.2       1 <0>         0.0000
     19 N3          1.7235   -2.4451   -3.5075 N.pl3     1 <0>         0.0000
     20 N4         -2.4220   -2.2069    1.0679 N.am      1 <0>         0.0000
     21 N5         -1.6934   -4.2450    2.9313 N.3       1 <0>         0.0000
     22 O1         -4.2150   -1.3219   -0.0292 O.2       1 <0>         0.0000
     23 O2         -1.4602   -2.6674   -1.7026 O.3       1 <0>         0.0000
     24 S1          3.7325   -2.4321   -5.3693 S.3       1 <0>         0.0000
     25 H1          1.3847   -0.9596   -1.1410 H         1 <0>         0.0000
     26 H2          1.3854    0.5723   -1.9983 H         1 <0>         0.0000
     27 H3         -1.8183    0.5988   -1.5756 H         1 <0>         0.0000
     28 H4         -0.7844   -0.2385   -0.4141 H         1 <0>         0.0000
     29 H5          2.0609   -0.4543   -4.0832 H         1 <0>         0.0000
     30 H6          3.1518   -1.0433   -2.8203 H         1 <0>         0.0000
     31 H7         -4.2285   -2.1187    2.0968 H         1 <0>         0.0000
     32 H8         -2.7935   -1.7345    3.0755 H         1 <0>         0.0000
     33 H9         -0.5407   -1.9761    1.9468 H         1 <0>         0.0000
     34 H10        -0.5127   -2.5300    0.2538 H         1 <0>         0.0000
     35 H11        -3.6093   -3.9574    3.7178 H         1 <0>         0.0000
     36 H12        -3.6101   -4.4957    2.0230 H         1 <0>         0.0000
     37 H13        -1.3447   -4.7285    0.8771 H         1 <0>         0.0000
     38 H14         0.0936   -4.3424    1.8513 H         1 <0>         0.0000
     39 H15         1.0080   -3.2418   -1.6791 H         1 <0>         0.0000
     40 H16         0.4945   -4.0811   -3.1439 H         1 <0>         0.0000
     41 H17        -3.0440   -1.3959   -2.1097 H         1 <0>         0.0000
     42 H18        -0.5078   -0.1614   -3.4022 H         1 <0>         0.0000
     43 H19        -1.0803   -2.3551   -3.7150 H         1 <0>         0.0000
     44 H20         4.7522   -3.6343   -8.0863 H         1 <0>         0.0000
     45 H21         5.9238   -4.1231   -6.8519 H         1 <0>         0.0000
     46 H22         4.8030   -5.3238   -7.5335 H         1 <0>         0.0000
     47 H23        -2.1049   -5.6934    4.3914 H         1 <0>         0.0000
     48 H24        -0.5298   -5.8592    3.5967 H         1 <0>         0.0000
     49 H25        -2.0109   -6.3602    2.7410 H         1 <0>         0.0000
@<TRIPOS>BOND
     1    1   15 1
     2    1   17 2
     3    1   24 1
     4    2   18 2
     5    2   19 1
     6    2   24 1
     7    3   12 1
     8    3   20 am
     9    3   22 2
    10    4    6 1
    11    4   13 1
    12    4   25 1
    13    4   26 1
    14    5   12 1
    15    5   13 1
    16    5   27 1
    17    5   28 1
    18    6   19 1
    19    6   29 1
    20    6   30 1
    21    7    9 1
    22    7   20 1
    23    7   31 1
    24    7   32 1
    25    8   10 1
    26    8   20 1
    27    8   33 1
    28    8   34 1
    29    9   21 1
    30    9   35 1
    31    9   36 1
    32   10   21 1
    33   10   37 1
    34   10   38 1
    35   11   14 1
    36   11   19 1
    37   11   39 1
    38   11   40 1
    39   12   23 1
    40   12   41 1
    41   13   14 1
    42   13   42 1
    43   14   23 1
    44   14   43 1
    45   15   44 1
    46   15   45 1
    47   15   46 1
    48   16   21 1
    49   16   47 1
    50   16   48 1
    51   16   49 1
    52   17   18 1
