@<TRIPOS>MOLECULE
*****
   51    54     0     0     0
SMALL
NO_CHARGES

@<TRIPOS>ATOM
      1 C1         -0.8959   -1.5231   -4.5235 C.1       1 <0>         0.0000
      2 C2         -3.1579   -0.6996   -4.2218 C.ar      1 <0>         0.0000
      3 C3         -1.8061   -0.6566   -3.8425 C.ar      1 <0>         0.0000
      4 C4         -4.0813    0.2091   -3.7202 C.ar      1 <0>         0.0000
      5 C5         -3.5724    1.2002   -2.8506 C.ar      1 <0>         0.0000
      6 C6         -1.4110    0.3181   -2.8769 C.ar      1 <0>         0.0000
      7 C7         -0.2663   -0.0946    0.6160 C.2       1 <0>         0.0000
      8 C8          1.0093    2.3590    1.5224 C.3       1 <0>         0.0000
      9 C9         -4.3724    0.0177    2.2066 C.3       1 <0>         0.0000
     10 C10        -3.7549    0.6288    0.9659 C.3       1 <0>         0.0000
     11 C11         1.8083    1.3886    0.6556 C.3       1 <0>         0.0000
     12 C12         1.6042   -0.5393   -1.0192 C.3       1 <0>         0.0000
     13 C13         0.0965    1.5817    2.4633 C.3       1 <0>         0.0000
     14 C14         0.7366   -0.7989   -2.2631 C.3       1 <0>         0.0000
     15 C15         0.1952    1.3647   -1.3311 C.3       1 <0>         0.0000
     16 C16        -3.0454    0.7420    2.2967 C.3       1 <0>         0.0000
     17 C17         0.8669    0.5403   -0.2022 C.3       1 <0>         0.0000
     18 C18        -5.5374    0.1655   -4.1142 C.3       1 <0>         0.0000
     19 C19        -4.4721    2.2882   -2.3200 C.3       1 <0>         0.0000
     20 C20        -1.7764   -0.0543    2.5258 C.3       1 <0>         0.0000
     21 N1         -0.1865   -2.2196   -5.1358 N.1       1 <0>         0.0000
     22 N2         -2.2993    1.2397   -2.4529 N.ar      1 <0>         0.0000
     23 N3         -0.1410    0.3864   -2.3648 N.pl3     1 <0>         0.0000
     24 N4         -0.6264    0.4961    1.7966 N.am      1 <0>         0.0000
     25 O1         -0.8721   -1.0785    0.1723 O.2       1 <0>         0.0000
     26 H1         -3.4671   -1.4527   -4.9420 H         1 <0>         0.0000
     27 H2          1.6720    2.9942    2.1194 H         1 <0>         0.0000
     28 H3          0.4126    3.0225    0.8870 H         1 <0>         0.0000
     29 H4         -5.2472    0.4935    2.6404 H         1 <0>         0.0000
     30 H5         -4.3606   -1.0654    2.2933 H         1 <0>         0.0000
     31 H6         -3.3200   -0.0358    0.2271 H         1 <0>         0.0000
     32 H7         -4.2085    1.5270    0.5596 H         1 <0>         0.0000
     33 H8          2.5067    1.9282    0.0057 H         1 <0>         0.0000
     34 H9          2.4128    0.7331    1.2963 H         1 <0>         0.0000
     35 H10         1.7641   -1.4565   -0.4489 H         1 <0>         0.0000
     36 H11         2.5835   -0.1444   -1.3109 H         1 <0>         0.0000
     37 H12         0.6884    1.1587    3.2895 H         1 <0>         0.0000
     38 H13        -0.6400    2.2561    2.9135 H         1 <0>         0.0000
     39 H14         1.3442   -0.9259   -3.1620 H         1 <0>         0.0000
     40 H15         0.1224   -1.6895   -2.1242 H         1 <0>         0.0000
     41 H16        -0.6994    1.9004   -1.0225 H         1 <0>         0.0000
     42 H17         0.9199    2.0942   -1.7212 H         1 <0>         0.0000
     43 H18        -3.0713    1.7219    2.7701 H         1 <0>         0.0000
     44 H19        -6.1867    0.0165   -3.2435 H         1 <0>         0.0000
     45 H20        -5.8574    1.0959   -4.5976 H         1 <0>         0.0000
     46 H21        -5.7279   -0.6538   -4.8127 H         1 <0>         0.0000
     47 H22        -5.3123    1.8657   -1.7574 H         1 <0>         0.0000
     48 H23        -3.9046    2.9515   -1.6662 H         1 <0>         0.0000
     49 H24        -4.9018    2.8779   -3.1384 H         1 <0>         0.0000
     50 H25        -1.9141   -1.0819    2.1889 H         1 <0>         0.0000
     51 H26        -1.5246   -0.0770    3.5932 H         1 <0>         0.0000
@<TRIPOS>BOND
     1    1    3 1
     2    1   21 3
     3    2    3 ar
     4    2    4 ar
     5    2   26 1
     6    3    6 ar
     7    4    5 ar
     8    4   18 1
     9    5   19 1
    10    5   22 ar
    11    6   22 ar
    12    6   23 1
    13    7   17 1
    14    7   24 am
    15    7   25 2
    16    8   11 1
    17    8   13 1
    18    8   27 1
    19    8   28 1
    20    9   10 1
    21    9   16 1
    22    9   29 1
    23    9   30 1
    24   10   16 1
    25   10   31 1
    26   10   32 1
    27   11   17 1
    28   11   33 1
    29   11   34 1
    30   12   14 1
    31   12   17 1
    32   12   35 1
    33   12   36 1
    34   13   24 1
    35   13   37 1
    36   13   38 1
    37   14   23 1
    38   14   39 1
    39   14   40 1
    40   15   17 1
    41   15   23 1
    42   15   41 1
    43   15   42 1
    44   16   20 1
    45   16   43 1
    46   18   44 1
    47   18   45 1
    48   18   46 1
    49   19   47 1
    50   19   48 1
    51   19   49 1
    52   20   24 1
    53   20   50 1
    54   20   51 1
