@<TRIPOS>MOLECULE
*****
   36    38     0     0     0
SMALL
NO_CHARGES

@<TRIPOS>ATOM
      1 C1         -5.5127    2.5180    4.1179 C.ar      1 <0>         0.0000
      2 C2         -5.7115    1.4109    4.9469 C.ar      1 <0>         0.0000
      3 C3         -5.5950    2.3712    2.7325 C.ar      1 <0>         0.0000
      4 C4         -6.0003    0.1685    4.3790 C.ar      1 <0>         0.0000
      5 C5         -5.8753    1.1355    2.1279 C.ar      1 <0>         0.0000
      6 C6         -6.0836    0.0436    2.9907 C.ar      1 <0>         0.0000
      7 C7         -5.0846   -0.0649   -0.0476 C.2       1 <0>         0.0000
      8 C8         -1.5674   -1.0053    2.0560 C.3       1 <0>         0.0000
      9 C9         -2.3920    0.2504    2.3775 C.3       1 <0>         0.0000
     10 C10        -2.3939   -2.0188    1.2499 C.3       1 <0>         0.0000
     11 C11        -7.3591    1.0860    0.0336 C.3       1 <0>         0.0000
     12 C12        -6.3505    2.1627   -0.2432 C.3       1 <0>         0.0000
     13 C13        -3.0148    0.8172    1.0982 C.3       1 <0>         0.0000
     14 C14        -3.0170   -1.3745    0.0047 C.3       1 <0>         0.0000
     15 C15        -5.9690    0.9766    0.6380 C.3       1 <0>         0.0000
     16 N1         -3.7986   -0.2028    0.4040 N.am      1 <0>         0.0000
     17 O1         -5.5353   -0.7693   -0.9539 O.2       1 <0>         0.0000
     18 Cl1        -6.4720   -1.5386    2.3360 Cl        1 <0>         0.0000
     19 H1         -5.2880    3.4909    4.5464 H         1 <0>         0.0000
     20 H2         -5.6464    1.5079    6.0271 H         1 <0>         0.0000
     21 H3         -5.4180    3.2340    2.0971 H         1 <0>         0.0000
     22 H4         -6.1649   -0.7035    5.0042 H         1 <0>         0.0000
     23 H5         -1.1955   -1.4644    2.9788 H         1 <0>         0.0000
     24 H6         -0.6839   -0.7140    1.4706 H         1 <0>         0.0000
     25 H7         -3.1939    0.0072    3.0830 H         1 <0>         0.0000
     26 H8         -1.7632    1.0157    2.8472 H         1 <0>         0.0000
     27 H9         -1.7691   -2.8663    0.9447 H         1 <0>         0.0000
     28 H10        -3.2033   -2.4164    1.8737 H         1 <0>         0.0000
     29 H11        -8.1610    1.3137    0.7286 H         1 <0>         0.0000
     30 H12        -7.5868    0.3742   -0.7512 H         1 <0>         0.0000
     31 H13        -5.9007    2.1903   -1.2308 H         1 <0>         0.0000
     32 H14        -6.4865    3.1339    0.2218 H         1 <0>         0.0000
     33 H15        -3.6297    1.6874    1.3056 H         1 <0>         0.0000
     34 H16        -2.2134    1.1462    0.4178 H         1 <0>         0.0000
     35 H17        -2.2305   -1.0678   -0.7015 H         1 <0>         0.0000
     36 H18        -3.6819   -2.0611   -0.5175 H         1 <0>         0.0000
@<TRIPOS>BOND
     1    1    2 ar
     2    1    3 ar
     3    1   19 1
     4    2    4 ar
     5    2   20 1
     6    3    5 ar
     7    3   21 1
     8    4    6 ar
     9    4   22 1
    10    5    6 ar
    11    5   15 1
    12    6   18 1
    13    7   15 1
    14    7   16 am
    15    7   17 2
    16    8   10 1
    17    8    9 1
    18    8   23 1
    19    8   24 1
    20    9   13 1
    21    9   25 1
    22    9   26 1
    23   10   14 1
    24   10   27 1
    25   10   28 1
    26   11   12 1
    27   11   15 1
    28   11   29 1
    29   11   30 1
    30   12   15 1
    31   12   31 1
    32   12   32 1
    33   13   16 1
    34   13   33 1
    35   13   34 1
    36   14   16 1
    37   14   35 1
    38   14   36 1
