@<TRIPOS>MOLECULE
*****
   49    52     0     0     0
SMALL
NO_CHARGES

@<TRIPOS>ATOM
      1 C1         -3.1886   -0.3920    1.6160 C.2       1 <0>         0.0000
      2 C2         -3.1534    0.7174   -0.5323 C.2       1 <0>         0.0000
      3 C3         -5.6786   -2.0338   -2.1174 C.2       1 <0>         0.0000
      4 C4         -4.9579    1.1917   -3.0739 C.3       1 <0>         0.0000
      5 C5         -5.1118   -0.9969   -4.4022 C.3       1 <0>         0.0000
      6 C6         -3.9483    2.0952   -2.3626 C.3       1 <0>         0.0000
      7 C7         -6.0823   -2.5084    0.2350 C.3       1 <0>         0.0000
      8 C8         -3.9878   -3.3334   -0.7899 C.3       1 <0>         0.0000
      9 C9         -6.1387   -3.7894    1.0575 C.3       1 <0>         0.0000
     10 C10        -4.1306   -4.5957    0.0567 C.3       1 <0>         0.0000
     11 C11        -2.1059    0.5517   -2.7408 C.3       1 <0>         0.0000
     12 C12        -4.6733   -1.9707   -3.2914 C.3       1 <0>         0.0000
     13 C13        -4.2860    0.2698   -4.1125 C.3       1 <0>         0.0000
     14 C14        -2.9830   -0.3605   -3.5979 C.3       1 <0>         0.0000
     15 C15        -3.0162   -1.2729    2.8133 C.3       1 <0>         0.0000
     16 C16        -4.8302   -5.4732    2.1941 C.3       1 <0>         0.0000
     17 N1         -4.2552    0.3063    1.3728 N.2       1 <0>         0.0000
     18 N2         -4.2501    0.9393    0.1514 N.2       1 <0>         0.0000
     19 N3         -2.8730    1.2979   -1.7462 N.pl3     1 <0>         0.0000
     20 N4         -5.2895   -2.6947   -0.9880 N.am      1 <0>         0.0000
     21 N5         -4.7923   -4.3017    1.3263 N.3       1 <0>         0.0000
     22 O1         -6.7884   -1.5024   -2.2227 O.2       1 <0>         0.0000
     23 O2         -3.3943   -1.4905   -2.8139 O.3       1 <0>         0.0000
     24 S1         -1.9951   -0.3162    0.3156 S.3       1 <0>         0.0000
     25 H1         -5.4849    0.6063   -2.3196 H         1 <0>         0.0000
     26 H2         -5.7167    1.8036   -3.5746 H         1 <0>         0.0000
     27 H3         -4.8474   -1.4092   -5.3810 H         1 <0>         0.0000
     28 H4         -6.1879   -0.8255   -4.3676 H         1 <0>         0.0000
     29 H5         -3.4650    2.7850   -3.0658 H         1 <0>         0.0000
     30 H6         -4.4332    2.6817   -1.5825 H         1 <0>         0.0000
     31 H7         -7.0836   -2.1979   -0.0606 H         1 <0>         0.0000
     32 H8         -5.6358   -1.7031    0.8285 H         1 <0>         0.0000
     33 H9         -3.3019   -2.6382   -0.2981 H         1 <0>         0.0000
     34 H10        -3.5482   -3.5944   -1.7509 H         1 <0>         0.0000
     35 H11        -6.6310   -3.5701    2.0107 H         1 <0>         0.0000
     36 H12        -6.7510   -4.5458    0.5289 H         1 <0>         0.0000
     37 H13        -4.6854   -5.3659   -0.5153 H         1 <0>         0.0000
     38 H14        -3.1292   -4.9908    0.2602 H         1 <0>         0.0000
     39 H15        -1.3246   -0.0365   -2.2544 H         1 <0>         0.0000
     40 H16        -1.6077    1.2749   -3.3971 H         1 <0>         0.0000
     41 H17        -4.5356   -2.9833   -3.6922 H         1 <0>         0.0000
     42 H18        -4.0854    0.8331   -5.0308 H         1 <0>         0.0000
     43 H19        -2.3805   -0.7144   -4.4501 H         1 <0>         0.0000
     44 H20        -3.1986   -2.3207    2.5431 H         1 <0>         0.0000
     45 H21        -2.0133   -1.1876    3.2423 H         1 <0>         0.0000
     46 H22        -3.7519   -0.9813    3.5662 H         1 <0>         0.0000
     47 H23        -5.3025   -5.2107    3.1461 H         1 <0>         0.0000
     48 H24        -3.8102   -5.8125    2.4024 H         1 <0>         0.0000
     49 H25        -5.3913   -6.3186    1.7531 H         1 <0>         0.0000
@<TRIPOS>BOND
     1    1   15 1
     2    1   17 2
     3    1   24 1
     4    2   18 2
     5    2   19 1
     6    2   24 1
     7    3   12 1
     8    3   20 am
     9    3   22 2
    10    4    6 1
    11    4   13 1
    12    4   25 1
    13    4   26 1
    14    5   12 1
    15    5   13 1
    16    5   27 1
    17    5   28 1
    18    6   19 1
    19    6   29 1
    20    6   30 1
    21    7    9 1
    22    7   20 1
    23    7   31 1
    24    7   32 1
    25    8   10 1
    26    8   20 1
    27    8   33 1
    28    8   34 1
    29    9   21 1
    30    9   35 1
    31    9   36 1
    32   10   21 1
    33   10   37 1
    34   10   38 1
    35   11   14 1
    36   11   19 1
    37   11   39 1
    38   11   40 1
    39   12   23 1
    40   12   41 1
    41   13   14 1
    42   13   42 1
    43   14   23 1
    44   14   43 1
    45   15   44 1
    46   15   45 1
    47   15   46 1
    48   16   21 1
    49   16   47 1
    50   16   48 1
    51   16   49 1
    52   17   18 1
