@<TRIPOS>MOLECULE
*****
   45    47     0     0     0
SMALL
NO_CHARGES

@<TRIPOS>ATOM
      1 C1          1.9828   -2.1415   -6.2514 C.2       1 <0>         0.0000
      2 C2          0.9656   -0.6127   -4.9816 C.2       1 <0>         0.0000
      3 C3          1.6111   -1.8456   -4.9135 C.2       1 <0>         0.0000
      4 C4          2.7029   -3.6572   -3.6769 C.2       1 <0>         0.0000
      5 C5          3.9199   -3.2727   -0.2686 C.2       1 <0>         0.0000
      6 C6          2.8013   -4.2604   -2.2711 C.3       1 <0>         0.0000
      7 C7          2.9294   -0.7318   -1.6436 C.3       1 <0>         0.0000
      8 C8          2.5619    0.2406   -0.5119 C.3       1 <0>         0.0000
      9 C9          1.1139   -2.2877   -2.5092 C.3       1 <0>         0.0000
     10 C10         1.2794   -1.6913   -0.0790 C.3       1 <0>         0.0000
     11 C11         2.0968   -2.0224   -1.3619 C.3       1 <0>         0.0000
     12 C12         4.7785   -4.5229   -0.1709 C.3       1 <0>         0.0000
     13 C13         0.4812    0.9797   -6.8746 C.3       1 <0>         0.0000
     14 C14        -0.3018    1.9751    0.3166 C.3       1 <0>         0.0000
     15 N1          1.5918   -1.1664   -7.0788 N.2       1 <0>         0.0000
     16 N2          0.9725   -0.2578   -6.2961 N.pl3     1 <0>         0.0000
     17 N3          1.8287   -2.6071   -3.7438 N.am      1 <0>         0.0000
     18 N4          2.9296   -3.2369   -1.2221 N.am      1 <0>         0.0000
     19 N5          1.2416   -0.2147    0.0062 N.pl3     1 <0>         0.0000
     20 O1          3.3473   -4.1105   -4.6191 O.2       1 <0>         0.0000
     21 O2          4.1048   -2.3222    0.4985 O.2       1 <0>         0.0000
     22 O3         -1.2540   -0.3665   -0.5333 O.2       1 <0>         0.0000
     23 O4          0.2111    1.0006   -2.0888 O.2       1 <0>         0.0000
     24 S1         -0.1039    0.5246   -0.7252 S.o2      1 <0>         0.0000
     25 H1          2.5123   -3.0056   -6.6212 H         1 <0>         0.0000
     26 H2          0.5272    0.0214   -4.2223 H         1 <0>         0.0000
     27 H3          1.9222   -4.8946   -2.0901 H         1 <0>         0.0000
     28 H4          3.6733   -4.9051   -2.2847 H         1 <0>         0.0000
     29 H5          2.6577   -0.3156   -2.6150 H         1 <0>         0.0000
     30 H6          3.9975   -0.9429   -1.6491 H         1 <0>         0.0000
     31 H7          3.2669    0.1528    0.3162 H         1 <0>         0.0000
     32 H8          2.5140    1.2802   -0.8391 H         1 <0>         0.0000
     33 H9          0.4334   -3.1065   -2.2459 H         1 <0>         0.0000
     34 H10         0.4982   -1.4089   -2.6670 H         1 <0>         0.0000
     35 H11         0.2674   -2.0963   -0.0951 H         1 <0>         0.0000
     36 H12         1.7978   -2.0495    0.8084 H         1 <0>         0.0000
     37 H13         5.4604   -4.6009   -1.0243 H         1 <0>         0.0000
     38 H14         4.1823   -5.4390   -0.1296 H         1 <0>         0.0000
     39 H15         5.3722   -4.4371    0.7390 H         1 <0>         0.0000
     40 H16         1.3100    1.6615   -7.0898 H         1 <0>         0.0000
     41 H17        -0.0474    0.7546   -7.8028 H         1 <0>         0.0000
     42 H18        -0.2041    1.4543   -6.1701 H         1 <0>         0.0000
     43 H19        -1.1240    2.5540   -0.1074 H         1 <0>         0.0000
     44 H20        -0.5346    1.6361    1.3254 H         1 <0>         0.0000
     45 H21         0.6222    2.5537    0.2979 H         1 <0>         0.0000
@<TRIPOS>BOND
     1    1    3 1
     2    1   15 2
     3    1   25 1
     4    2    3 2
     5    2   16 1
     6    2   26 1
     7    3   17 1
     8    4    6 1
     9    4   17 am
    10    4   20 2
    11    5   12 1
    12    5   18 am
    13    5   21 2
    14    6   18 1
    15    6   27 1
    16    6   28 1
    17    7    8 1
    18    7   11 1
    19    7   29 1
    20    7   30 1
    21    8   19 1
    22    8   31 1
    23    8   32 1
    24    9   11 1
    25    9   17 1
    26    9   33 1
    27    9   34 1
    28   10   11 1
    29   10   19 1
    30   10   35 1
    31   10   36 1
    32   11   18 1
    33   12   37 1
    34   12   38 1
    35   12   39 1
    36   13   16 1
    37   13   40 1
    38   13   41 1
    39   13   42 1
    40   14   24 1
    41   14   43 1
    42   14   44 1
    43   14   45 1
    44   15   16 1
    45   19   24 1
    46   22   24 2
    47   23   24 2
