@<TRIPOS>MOLECULE
*****
   37    40     0     0     0
SMALL
NO_CHARGES

@<TRIPOS>ATOM
      1 C1         -2.0938   -5.2283    0.5938 C.ar      1 <0>         0.0000
      2 C2         -1.0013   -0.5305   -0.0508 C.ar      1 <0>         0.0000
      3 C3         -1.0825   -4.3016    0.3494 C.ar      1 <0>         0.0000
      4 C4         -0.4938   -1.8175    0.0051 C.ar      1 <0>         0.0000
      5 C5         -3.4567   -4.8522    0.7492 C.ar      1 <0>         0.0000
      6 C6         -2.3904   -0.2208    0.1162 C.ar      1 <0>         0.0000
      7 C7         -1.3810   -2.9138    0.2432 C.ar      1 <0>         0.0000
      8 C8         -2.7342   -2.5867    0.3996 C.ar      1 <0>         0.0000
      9 C9         -3.7622   -3.5083    0.6470 C.ar      1 <0>         0.0000
     10 C10        -3.2493   -1.2718    0.3377 C.ar      1 <0>         0.0000
     11 C11        -5.4501    0.5063    1.8672 C.2       1 <0>         0.0000
     12 C12        -5.9054    2.0605    3.2714 C.2       1 <0>         0.0000
     13 C13        -5.0271   -2.7168    0.7470 C.2       1 <0>         0.0000
     14 C14        -5.9573    3.7383    5.1140 C.3       1 <0>         0.0000
     15 C15        -8.1193    2.9127    4.0448 C.3       1 <0>         0.0000
     16 C16        -5.5739   -0.2824    0.5967 C.3       1 <0>         0.0000
     17 C17        -6.6294    3.2462    3.8259 C.3       1 <0>         0.0000
     18 N1         -4.6472    0.3363    2.8661 N.2       1 <0>         0.0000
     19 N2         -4.9477    1.3570    3.7886 N.2       1 <0>         0.0000
     20 N3         -4.6369   -1.3710    0.5310 N.am      1 <0>         0.0000
     21 O1         -6.1772   -3.0763    0.9515 O.2       1 <0>         0.0000
     22 O2         -6.2825    1.5796    2.0349 O.3       1 <0>         0.0000
     23 H1         -1.8323   -6.2803    0.6716 H         1 <0>         0.0000
     24 H2         -0.3175    0.2965   -0.2234 H         1 <0>         0.0000
     25 H3         -0.0560   -4.6448    0.2418 H         1 <0>         0.0000
     26 H4          0.5711   -1.9909   -0.1253 H         1 <0>         0.0000
     27 H5         -4.2215   -5.5989    0.9432 H         1 <0>         0.0000
     28 H6         -2.7231    0.8123    0.0849 H         1 <0>         0.0000
     29 H7         -5.9920    2.9677    5.8891 H         1 <0>         0.0000
     30 H8         -6.4783    4.6268    5.4836 H         1 <0>         0.0000
     31 H9         -4.9078    3.9927    4.9452 H         1 <0>         0.0000
     32 H10        -8.2301    2.1249    4.7970 H         1 <0>         0.0000
     33 H11        -8.5956    2.5753    3.1200 H         1 <0>         0.0000
     34 H12        -8.6507    3.8012    4.3996 H         1 <0>         0.0000
     35 H13        -6.5788   -0.7122    0.5343 H         1 <0>         0.0000
     36 H14        -5.4460    0.3891   -0.2613 H         1 <0>         0.0000
     37 H15        -6.5690    4.0383    3.0676 H         1 <0>         0.0000
@<TRIPOS>BOND
     1    1    3 ar
     2    1    5 ar
     3    1   23 1
     4    2    4 ar
     5    2    6 ar
     6    2   24 1
     7    3    7 ar
     8    3   25 1
     9    4    7 ar
    10    4   26 1
    11    5    9 ar
    12    5   27 1
    13    6   10 ar
    14    6   28 1
    15    7    8 ar
    16    8    9 ar
    17    8   10 ar
    18    9   13 1
    19   10   20 1
    20   11   16 1
    21   11   18 2
    22   11   22 1
    23   12   17 1
    24   12   19 2
    25   12   22 1
    26   13   20 am
    27   13   21 2
    28   14   17 1
    29   14   29 1
    30   14   30 1
    31   14   31 1
    32   15   17 1
    33   15   32 1
    34   15   33 1
    35   15   34 1
    36   16   20 1
    37   16   35 1
    38   16   36 1
    39   17   37 1
    40   18   19 1
