@<TRIPOS>MOLECULE
*****
   31    33     0     0     0
SMALL
NO_CHARGES

@<TRIPOS>ATOM
      1 C1         -6.9804   -0.0221    2.9593 C.1       1 <0>         0.0000
      2 C2         -1.7146   -1.9112    2.4258 C.ar      1 <0>         0.0000
      3 C3         -1.4137   -2.1948    3.7554 C.ar      1 <0>         0.0000
      4 C4         -2.8359   -0.3533    4.5426 C.ar      1 <0>         0.0000
      5 C5         -3.8901    0.7251    1.2032 C.2       1 <0>         0.0000
      6 C6         -7.2804    0.5987    1.7184 C.2       1 <0>         0.0000
      7 C7         -3.1355   -0.0485    3.2043 C.ar      1 <0>         0.0000
      8 C8         -3.9737    0.9544    2.5731 C.2       1 <0>         0.0000
      9 C9         -2.5730   -0.8383    2.1697 C.ar      1 <0>         0.0000
     10 C10        -1.9761   -1.4160    4.7869 C.ar      1 <0>         0.0000
     11 C11        -6.8540    1.8119    1.2194 C.2       1 <0>         0.0000
     12 C12        -8.2240    0.8496   -0.1990 C.2       1 <0>         0.0000
     13 C13        -4.6715    1.9916    3.3027 C.2       1 <0>         0.0000
     14 C14        -9.0115    0.7790   -1.4575 C.3       1 <0>         0.0000
     15 N1         -6.7348   -0.5371    3.9768 N.1       1 <0>         0.0000
     16 N2         -8.1521    0.0136    0.7791 N.2       1 <0>         0.0000
     17 N3         -5.5490    2.8736    2.9481 N.2       1 <0>         0.0000
     18 N4         -3.0507   -0.3326    0.9665 N.pl3     1 <0>         0.0000
     19 N5         -5.9708    2.8035    1.5874 N.pl3     1 <0>         0.0000
     20 O1         -7.4406    1.9860   -0.0032 O.3       1 <0>         0.0000
     21 Br1        -1.5338   -1.8570    6.6025 Br        1 <0>         0.0000
     22 H1         -1.2927   -2.5118    1.6244 H         1 <0>         0.0000
     23 H2         -0.7517   -3.0178    4.0017 H         1 <0>         0.0000
     24 H3         -3.2696    0.2062    5.3642 H         1 <0>         0.0000
     25 H4         -4.3496    1.2578    0.3854 H         1 <0>         0.0000
     26 H5         -4.4191    2.0698    4.3595 H         1 <0>         0.0000
     27 H6         -9.7251    1.6073   -1.5188 H         1 <0>         0.0000
     28 H7         -8.3590    0.8328   -2.3351 H         1 <0>         0.0000
     29 H8         -9.5582   -0.1643   -1.4741 H         1 <0>         0.0000
     30 H9         -2.8374   -0.7043    0.0512 H         1 <0>         0.0000
     31 H10        -6.3115    3.7197    1.3061 H         1 <0>         0.0000
@<TRIPOS>BOND
     1    1    6 1
     2    1   15 3
     3    2    3 ar
     4    2    9 ar
     5    2   22 1
     6    3   10 ar
     7    3   23 1
     8    4    7 ar
     9    4   10 ar
    10    4   24 1
    11    5    8 2
    12    5   18 1
    13    5   25 1
    14    6   11 2
    15    6   16 1
    16    7    8 1
    17    7    9 ar
    18    8   13 1
    19    9   18 1
    20   10   21 1
    21   11   19 1
    22   11   20 1
    23   12   14 1
    24   12   16 2
    25   12   20 1
    26   13   17 2
    27   13   26 1
    28   14   27 1
    29   14   28 1
    30   14   29 1
    31   17   19 1
    32   18   30 1
    33   19   31 1
