@<TRIPOS>MOLECULE
*****
   51    54     0     0     0
SMALL
NO_CHARGES

@<TRIPOS>ATOM
      1 C1         -1.6109    3.2795   -2.4720 C.1       1 <0>         0.0000
      2 C2         -3.2351    2.1861   -3.9039 C.ar      1 <0>         0.0000
      3 C3         -2.0844    2.0873   -3.1019 C.ar      1 <0>         0.0000
      4 C4         -3.7021    1.1064   -4.6414 C.ar      1 <0>         0.0000
      5 C5         -2.9380   -0.0825   -4.5645 C.ar      1 <0>         0.0000
      6 C6         -1.4230    0.8211   -3.0358 C.ar      1 <0>         0.0000
      7 C7         -0.0084   -0.1742    0.8239 C.2       1 <0>         0.0000
      8 C8          1.5981    2.1570    1.4739 C.3       1 <0>         0.0000
      9 C9         -2.5756    1.7058    3.8117 C.3       1 <0>         0.0000
     10 C10        -3.2063    0.3899    4.2229 C.3       1 <0>         0.0000
     11 C11         2.1098    1.1788    0.4202 C.3       1 <0>         0.0000
     12 C12         1.3985   -0.6511   -1.2208 C.3       1 <0>         0.0000
     13 C13         0.8970    1.3906    2.5888 C.3       1 <0>         0.0000
     14 C14         0.2758   -0.7784   -2.2512 C.3       1 <0>         0.0000
     15 C15         0.0850    1.3777   -1.1200 C.3       1 <0>         0.0000
     16 C16        -2.3006    0.4478    3.0152 C.3       1 <0>         0.0000
     17 C17         0.9365    0.4342   -0.2244 C.3       1 <0>         0.0000
     18 C18        -4.9391    1.2041   -5.5005 C.3       1 <0>         0.0000
     19 C19        -3.3270   -1.2974   -5.3693 C.3       1 <0>         0.0000
     20 C20        -0.9446   -0.2234    3.0615 C.3       1 <0>         0.0000
     21 N1         -1.2481    4.2833   -1.9971 N.1       1 <0>         0.0000
     22 N2         -1.8564   -0.2090   -3.7950 N.ar      1 <0>         0.0000
     23 N3         -0.3374    0.5607   -2.2562 N.pl3     1 <0>         0.0000
     24 N4         -0.0012    0.3443    2.0889 N.am      1 <0>         0.0000
     25 O1         -0.7914   -1.0787    0.5082 O.2       1 <0>         0.0000
     26 H1         -3.7490    3.1429   -3.9499 H         1 <0>         0.0000
     27 H2          2.4181    2.7380    1.9083 H         1 <0>         0.0000
     28 H3          0.9061    2.8722    1.0157 H         1 <0>         0.0000
     29 H4         -3.2107    2.4672    3.3684 H         1 <0>         0.0000
     30 H5         -1.7844    2.0978    4.4456 H         1 <0>         0.0000
     31 H6         -2.8259   -0.0910    5.1206 H         1 <0>         0.0000
     32 H7         -4.2709    0.2525    4.0596 H         1 <0>         0.0000
     33 H8          2.6800    1.7001   -0.3567 H         1 <0>         0.0000
     34 H9          2.7915    0.4550    0.8861 H         1 <0>         0.0000
     35 H10         1.6043   -1.6031   -0.7273 H         1 <0>         0.0000
     36 H11         2.3207   -0.3070   -1.7023 H         1 <0>         0.0000
     37 H12         1.6461    0.9248    3.2469 H         1 <0>         0.0000
     38 H13         0.3087    2.0772    3.2047 H         1 <0>         0.0000
     39 H14         0.6404   -1.0301   -3.2506 H         1 <0>         0.0000
     40 H15        -0.4603   -1.5258   -1.9508 H         1 <0>         0.0000
     41 H16        -0.7812    1.7762   -0.5861 H         1 <0>         0.0000
     42 H17         0.6911    2.2308   -1.4453 H         1 <0>         0.0000
     43 H18        -2.7856    0.3721    2.0458 H         1 <0>         0.0000
     44 H19        -4.7179    1.0091   -6.5564 H         1 <0>         0.0000
     45 H20        -5.7029    0.4796   -5.1945 H         1 <0>         0.0000
     46 H21        -5.3828    2.2012   -5.4332 H         1 <0>         0.0000
     47 H22        -3.3448   -1.0720   -6.4420 H         1 <0>         0.0000
     48 H23        -2.6169   -2.1046   -5.1862 H         1 <0>         0.0000
     49 H24        -4.3326   -1.6415   -5.1006 H         1 <0>         0.0000
     50 H25        -1.0525   -1.2882    2.8456 H         1 <0>         0.0000
     51 H26        -0.5014   -0.1190    4.0585 H         1 <0>         0.0000
@<TRIPOS>BOND
     1    1    3 1
     2    1   21 3
     3    2    3 ar
     4    2    4 ar
     5    2   26 1
     6    3    6 ar
     7    4    5 ar
     8    4   18 1
     9    5   19 1
    10    5   22 ar
    11    6   22 ar
    12    6   23 1
    13    7   17 1
    14    7   24 am
    15    7   25 2
    16    8   11 1
    17    8   13 1
    18    8   27 1
    19    8   28 1
    20    9   10 1
    21    9   16 1
    22    9   29 1
    23    9   30 1
    24   10   16 1
    25   10   31 1
    26   10   32 1
    27   11   17 1
    28   11   33 1
    29   11   34 1
    30   12   14 1
    31   12   17 1
    32   12   35 1
    33   12   36 1
    34   13   24 1
    35   13   37 1
    36   13   38 1
    37   14   23 1
    38   14   39 1
    39   14   40 1
    40   15   17 1
    41   15   23 1
    42   15   41 1
    43   15   42 1
    44   16   20 1
    45   16   43 1
    46   18   44 1
    47   18   45 1
    48   18   46 1
    49   19   47 1
    50   19   48 1
    51   19   49 1
    52   20   24 1
    53   20   50 1
    54   20   51 1
