@<TRIPOS>MOLECULE
*****
   27    28     0     0     0
SMALL
NO_CHARGES

@<TRIPOS>ATOM
      1 C1         -0.9310    1.3887    2.9187 C.1       1 <0>         0.0000
      2 C2         -0.1565    0.6019    2.4157 C.1       1 <0>         0.0000
      3 C3          1.5944   -1.5312   -0.1011 C.ar      1 <0>         0.0000
      4 C4          0.6920   -0.6234    0.4491 C.ar      1 <0>         0.0000
      5 C5          2.5688   -2.1600    0.6792 C.ar      1 <0>         0.0000
      6 C6          1.7344   -0.9525    2.6149 C.ar      1 <0>         0.0000
      7 C7          6.0620   -5.0093    3.7665 C.ar      1 <0>         0.0000
      8 C8          5.6839   -2.9413    4.9109 C.ar      1 <0>         0.0000
      9 C9          0.7588   -0.3274    1.8238 C.ar      1 <0>         0.0000
     10 C10         5.4180   -3.7667    3.8130 C.ar      1 <0>         0.0000
     11 C11         2.6372   -1.8649    2.0511 C.ar      1 <0>         0.0000
     12 C12         6.8951   -5.3884    4.8121 C.ar      1 <0>         0.0000
     13 C13         7.0699   -4.4853    5.8821 C.ar      1 <0>         0.0000
     14 C14         4.5363   -3.3966    2.6521 C.2       1 <0>         0.0000
     15 N1          6.4892   -3.2980    5.9176 N.ar      1 <0>         0.0000
     16 N2          3.5897   -2.4384    2.9250 N.am      1 <0>         0.0000
     17 O1          4.6775   -3.9417    1.5597 O.2       1 <0>         0.0000
     18 Cl1         7.6873   -6.9363    4.7654 Cl        1 <0>         0.0000
     19 Cl2         8.0902   -4.8977    7.2349 Cl        1 <0>         0.0000
     20 H1         -1.6163    2.0825    3.3578 H         1 <0>         0.0000
     21 H2          1.5439   -1.7617   -1.1618 H         1 <0>         0.0000
     22 H3         -0.0616   -0.1417   -0.1657 H         1 <0>         0.0000
     23 H4          3.2604   -2.8676    0.2447 H         1 <0>         0.0000
     24 H5          1.7807   -0.7177    3.6758 H         1 <0>         0.0000
     25 H6          5.9054   -5.6598    2.9121 H         1 <0>         0.0000
     26 H7          5.2715   -1.9368    4.9874 H         1 <0>         0.0000
     27 H8          3.5003   -2.1535    3.8914 H         1 <0>         0.0000
@<TRIPOS>BOND
     1    1    2 3
     2    1   20 1
     3    2    9 1
     4    3    4 ar
     5    3    5 ar
     6    3   21 1
     7    4    9 ar
     8    4   22 1
     9    5   11 ar
    10    5   23 1
    11    6    9 ar
    12    6   11 ar
    13    6   24 1
    14    7   10 ar
    15    7   12 ar
    16    7   25 1
    17    8   10 ar
    18    8   15 ar
    19    8   26 1
    20   10   14 1
    21   11   16 1
    22   12   13 ar
    23   12   18 1
    24   13   15 ar
    25   13   19 1
    26   14   16 am
    27   14   17 2
    28   16   27 1
