@<TRIPOS>MOLECULE
*****
   23    23     0     0     0
SMALL
NO_CHARGES

@<TRIPOS>ATOM
      1 C1          1.8687   -1.0483    0.0278 C.ar      1 <0>         0.0000
      2 C2          0.7648   -0.6510    0.7940 C.ar      1 <0>         0.0000
      3 C3          2.0558   -1.0197    2.8196 C.ar      1 <0>         0.0000
      4 C4          3.1652   -1.4184    2.0645 C.ar      1 <0>         0.0000
      5 C5          3.0414   -1.4205    0.6625 C.ar      1 <0>         0.0000
      6 C6          0.8617   -0.6320    2.1873 C.ar      1 <0>         0.0000
      7 C7          5.9299   -2.3215    4.2889 C.3       1 <0>         0.0000
      8 C8         -0.1872    1.6558    3.3444 C.3       1 <0>         0.0000
      9 C9          4.5209   -1.8399    3.9929 C.3       1 <0>         0.0000
     10 O1          4.3658   -1.8136    2.5670 O.3       1 <0>         0.0000
     11 F1          4.1070   -1.8068   -0.0767 F         1 <0>         0.0000
     12 S1         -0.5442   -0.1366    3.1861 S.3       1 <0>         0.0000
     13 H1          1.8274   -1.0751   -1.0570 H         1 <0>         0.0000
     14 H2         -0.1628   -0.3627    0.3100 H         1 <0>         0.0000
     15 H3          2.0994   -1.0104    3.9020 H         1 <0>         0.0000
     16 H4          6.0883   -3.3239    3.8814 H         1 <0>         0.0000
     17 H5          6.6691   -1.6472    3.8475 H         1 <0>         0.0000
     18 H6          6.0909   -2.3555    5.3712 H         1 <0>         0.0000
     19 H7         -0.9890    2.0863    3.9502 H         1 <0>         0.0000
     20 H8         -0.1781    2.1369    2.3637 H         1 <0>         0.0000
     21 H9          0.7698    1.8191    3.8457 H         1 <0>         0.0000
     22 H10         4.3556   -0.8330    4.3987 H         1 <0>         0.0000
     23 H11         3.7737   -2.5146    4.4309 H         1 <0>         0.0000
@<TRIPOS>BOND
     1    1    2 ar
     2    1    5 ar
     3    1   13 1
     4    2    6 ar
     5    2   14 1
     6    3    4 ar
     7    3    6 ar
     8    3   15 1
     9    4    5 ar
    10    4   10 1
    11    5   11 1
    12    6   12 1
    13    7    9 1
    14    7   16 1
    15    7   17 1
    16    7   18 1
    17    8   12 1
    18    8   19 1
    19    8   20 1
    20    8   21 1
    21    9   10 1
    22    9   22 1
    23    9   23 1
