@<TRIPOS>MOLECULE
*****
   68    70     0     0     0
SMALL
NO_CHARGES

@<TRIPOS>ATOM
      1 C1          9.2266    1.7827   -3.3698 C.ar      1 <0>         0.0000
      2 C2          5.0015    7.5275    0.1632 C.ar      1 <0>         0.0000
      3 C3          8.8827    1.5111   -2.0403 C.ar      1 <0>         0.0000
      4 C4          8.2252    1.9488   -4.3313 C.ar      1 <0>         0.0000
      5 C5          6.1424    6.8202   -0.2335 C.ar      1 <0>         0.0000
      6 C6          3.7352    7.1067   -0.2554 C.ar      1 <0>         0.0000
      7 C7          7.5389    1.4107   -1.6753 C.ar      1 <0>         0.0000
      8 C8          6.8797    1.8567   -3.9634 C.ar      1 <0>         0.0000
      9 C9          6.0142    5.6917   -1.0457 C.ar      1 <0>         0.0000
     10 C10         3.6047    5.9753   -1.0647 C.ar      1 <0>         0.0000
     11 C11         6.5283    1.5911   -2.6332 C.ar      1 <0>         0.0000
     12 C12         4.7440    5.2603   -1.4616 C.ar      1 <0>         0.0000
     13 C13         0.3594    2.4321    0.2826 C.2       1 <0>         0.0000
     14 C14        -2.8657    1.9089   -1.2467 C.3       1 <0>         0.0000
     15 C15        -1.8064    2.9373   -0.8136 C.3       1 <0>         0.0000
     16 C16        -1.4800    0.6793    0.1327 C.3       1 <0>         0.0000
     17 C17        -1.1948    3.6376   -2.0303 C.3       1 <0>         0.0000
     18 C18        -2.3843    3.9438    0.1912 C.3       1 <0>         0.0000
     19 C19        -1.4987    0.2998    1.6110 C.3       1 <0>         0.0000
     20 C20        -0.8583   -0.4107   -0.7463 C.3       1 <0>         0.0000
     21 C21         2.4432    0.8023    2.6787 C.3       1 <0>         0.0000
     22 C22         5.0863    1.5241   -2.2105 C.3       1 <0>         0.0000
     23 C23         4.6313    4.0157   -2.2958 C.3       1 <0>         0.0000
     24 C24         3.5355    1.6429    0.5493 C.3       1 <0>         0.0000
     25 C25         3.4036    2.5905   -0.6399 C.3       1 <0>         0.0000
     26 C26         2.3279    1.7531    1.4952 C.3       1 <0>         0.0000
     27 N1         -0.8500    2.0148   -0.1391 N.am      1 <0>         0.0000
     28 N2          4.6895    2.7627   -1.4167 N.4       1 <0>         0.0000
     29 O1          0.7900    3.5847    0.2088 O.2       1 <0>         0.0000
     30 O2         -2.8383    0.9054   -0.2392 O.3       1 <0>         0.0000
     31 O3          1.1165    1.3978    0.7857 O.3       1 <0>         0.0000
     32 H1         10.2719    1.8534   -3.6563 H         1 <0>         0.0000
     33 H2          5.1009    8.4090    0.7902 H         1 <0>         0.0000
     34 H3          9.6595    1.3639   -1.2956 H         1 <0>         0.0000
     35 H4          8.4901    2.1473   -5.3656 H         1 <0>         0.0000
     36 H5          7.1274    7.1547    0.0789 H         1 <0>         0.0000
     37 H6          2.8494    7.6573    0.0469 H         1 <0>         0.0000
     38 H7          7.2806    1.1668   -0.6453 H         1 <0>         0.0000
     39 H8          6.1048    1.9810   -4.7167 H         1 <0>         0.0000
     40 H9          6.9048    5.1572   -1.3735 H         1 <0>         0.0000
     41 H10         2.6159    5.6523   -1.3820 H         1 <0>         0.0000
     42 H11        -3.8728    2.3278   -1.2757 H         1 <0>         0.0000
     43 H12        -2.6245    1.4860   -2.2317 H         1 <0>         0.0000
     44 H13        -0.4773    4.4010   -1.7273 H         1 <0>         0.0000
     45 H14        -1.9902    4.1201   -2.6078 H         1 <0>         0.0000
     46 H15        -0.6935    2.9146   -2.6829 H         1 <0>         0.0000
     47 H16        -1.5868    4.5500    0.6263 H         1 <0>         0.0000
     48 H17        -2.9139    3.4223    0.9934 H         1 <0>         0.0000
     49 H18        -3.0918    4.6118   -0.3105 H         1 <0>         0.0000
     50 H19        -1.8514    1.1422    2.2109 H         1 <0>         0.0000
     51 H20        -0.5135   -0.0095    1.9580 H         1 <0>         0.0000
     52 H21        -2.1965   -0.5315    1.7402 H         1 <0>         0.0000
     53 H22        -0.9360   -0.1446   -1.8041 H         1 <0>         0.0000
     54 H23        -1.3915   -1.3514   -0.5861 H         1 <0>         0.0000
     55 H24         0.1949   -0.5534   -0.4956 H         1 <0>         0.0000
     56 H25         2.4874   -0.2384    2.3435 H         1 <0>         0.0000
     57 H26         1.5793    0.9164    3.3377 H         1 <0>         0.0000
     58 H27         3.3458    1.0203    3.2580 H         1 <0>         0.0000
     59 H28         4.4017    1.4718   -3.0592 H         1 <0>         0.0000
     60 H29         4.8991    0.6690   -1.5605 H         1 <0>         0.0000
     61 H30         3.6889    3.9539   -2.8433 H         1 <0>         0.0000
     62 H31         5.4607    3.9299   -2.9977 H         1 <0>         0.0000
     63 H32         4.4307    1.8980    1.1315 H         1 <0>         0.0000
     64 H33         3.6352    0.6007    0.2292 H         1 <0>         0.0000
     65 H34         2.6553    2.2483   -1.3565 H         1 <0>         0.0000
     66 H35         3.1075    3.5785   -0.2980 H         1 <0>         0.0000
     67 H36         2.2328    2.7858    1.8381 H         1 <0>         0.0000
     68 H37         5.4406    2.9353   -0.7391 H         1 <0>         0.0000
@<TRIPOS>BOND
     1    1    4 ar
     2    1    3 ar
     3    1   32 1
     4    2    6 ar
     5    2    5 ar
     6    2   33 1
     7    3    7 ar
     8    3   34 1
     9    4    8 ar
    10    4   35 1
    11    5    9 ar
    12    5   36 1
    13    6   10 ar
    14    6   37 1
    15    7   11 ar
    16    7   38 1
    17    8   11 ar
    18    8   39 1
    19    9   12 ar
    20    9   40 1
    21   10   12 ar
    22   10   41 1
    23   11   22 1
    24   12   23 1
    25   13   27 am
    26   13   29 2
    27   13   31 1
    28   14   15 1
    29   14   30 1
    30   14   42 1
    31   14   43 1
    32   15   17 1
    33   15   18 1
    34   15   27 1
    35   16   19 1
    36   16   20 1
    37   16   27 1
    38   16   30 1
    39   17   44 1
    40   17   45 1
    41   17   46 1
    42   18   47 1
    43   18   48 1
    44   18   49 1
    45   19   50 1
    46   19   51 1
    47   19   52 1
    48   20   53 1
    49   20   54 1
    50   20   55 1
    51   21   26 1
    52   21   56 1
    53   21   57 1
    54   21   58 1
    55   22   28 1
    56   22   59 1
    57   22   60 1
    58   23   28 1
    59   23   61 1
    60   23   62 1
    61   24   25 1
    62   24   26 1
    63   24   63 1
    64   24   64 1
    65   25   28 1
    66   25   65 1
    67   25   66 1
    68   26   31 1
    69   26   67 1
    70   28   68 1
