@<TRIPOS>MOLECULE
*****
   29    31     0     0     0
SMALL
NO_CHARGES

@<TRIPOS>ATOM
      1 C1          1.3015    1.5369   -0.3900 C.ar      1 <0>         0.0000
      2 C2          0.0101    0.9946   -0.3958 C.ar      1 <0>         0.0000
      3 C3          1.5125    2.8694   -0.7703 C.ar      1 <0>         0.0000
      4 C4         -1.0868    1.7776   -0.7813 C.ar      1 <0>         0.0000
      5 C5          0.4196    3.6458   -1.1536 C.ar      1 <0>         0.0000
      6 C6         -0.8763    3.1037   -1.1586 C.ar      1 <0>         0.0000
      7 C7         -2.5663    6.8913   -3.0763 C.2       1 <0>         0.0000
      8 C8          0.3845    5.0948   -1.5869 C.3       1 <0>         0.0000
      9 C9         -1.8813    4.1469   -1.5924 C.3       1 <0>         0.0000
     10 C10        -4.1106    7.0261   -4.6397 C.3       1 <0>         0.0000
     11 C11        -4.2363    8.2559   -3.7039 C.3       1 <0>         0.0000
     12 C12        -0.9869    5.2076   -2.2898 C.3       1 <0>         0.0000
     13 N1         -3.0838    6.1827   -4.0123 N.2       1 <0>         0.0000
     14 N2         -1.4935    6.5731   -2.2908 N.pl3     1 <0>         0.0000
     15 O1         -3.0836    8.1412   -2.8260 O.3       1 <0>         0.0000
     16 H1          2.1453    0.9181   -0.0951 H         1 <0>         0.0000
     17 H2         -0.1405   -0.0421   -0.1052 H         1 <0>         0.0000
     18 H3          2.5177    3.2858   -0.7714 H         1 <0>         0.0000
     19 H4         -2.0876    1.3511   -0.7912 H         1 <0>         0.0000
     20 H5          0.4182    5.7553   -0.7072 H         1 <0>         0.0000
     21 H6          1.2131    5.3852   -2.2391 H         1 <0>         0.0000
     22 H7         -2.6632    3.7714   -2.2565 H         1 <0>         0.0000
     23 H8         -2.3765    4.5916   -0.7170 H         1 <0>         0.0000
     24 H9         -5.0563    6.4819   -4.7298 H         1 <0>         0.0000
     25 H10        -3.7971    7.3127   -5.6517 H         1 <0>         0.0000
     26 H11        -4.1748    9.2192   -4.2144 H         1 <0>         0.0000
     27 H12        -5.1365    8.2302   -3.0814 H         1 <0>         0.0000
     28 H13        -0.8753    4.9147   -3.3364 H         1 <0>         0.0000
     29 H14        -1.4635    7.0712   -1.4084 H         1 <0>         0.0000
@<TRIPOS>BOND
     1    1    2 ar
     2    1    3 ar
     3    1   16 1
     4    2    4 ar
     5    2   17 1
     6    3    5 ar
     7    3   18 1
     8    4    6 ar
     9    4   19 1
    10    5    6 ar
    11    5    8 1
    12    6    9 1
    13    7   13 2
    14    7   14 1
    15    7   15 1
    16    8   12 1
    17    8   20 1
    18    8   21 1
    19    9   12 1
    20    9   22 1
    21    9   23 1
    22   10   11 1
    23   10   13 1
    24   10   24 1
    25   10   25 1
    26   11   15 1
    27   11   26 1
    28   11   27 1
    29   12   14 1
    30   12   28 1
    31   14   29 1
