@<TRIPOS>MOLECULE
*****
   29    31     0     0     0
SMALL
NO_CHARGES

@<TRIPOS>ATOM
      1 C1          1.3418    0.4738    1.7191 C.ar      1 <0>         0.0000
      2 C2          0.0110    0.1451    1.4314 C.ar      1 <0>         0.0000
      3 C3          1.6681    1.1366    2.9106 C.ar      1 <0>         0.0000
      4 C4         -1.0114    0.4750    2.3322 C.ar      1 <0>         0.0000
      5 C5          0.6505    1.4636    3.8064 C.ar      1 <0>         0.0000
      6 C6         -0.6834    1.1324    3.5174 C.ar      1 <0>         0.0000
      7 C7          0.1530    0.5464    7.7676 C.2       1 <0>         0.0000
      8 C8          0.7328    2.1797    5.1380 C.3       1 <0>         0.0000
      9 C9         -1.5889    1.6051    4.6374 C.3       1 <0>         0.0000
     10 C10         1.0881    1.0215    9.7045 C.3       1 <0>         0.0000
     11 C11         1.1458   -0.5123    9.4830 C.3       1 <0>         0.0000
     12 C12        -0.6119    1.8070    5.8196 C.3       1 <0>         0.0000
     13 N1          0.5417    1.5606    8.4516 N.2       1 <0>         0.0000
     14 N2         -0.5242    0.5568    6.5805 N.pl3     1 <0>         0.0000
     15 O1          0.3773   -0.7157    8.2668 O.3       1 <0>         0.0000
     16 H1          2.1267    0.2078    1.0155 H         1 <0>         0.0000
     17 H2         -0.2289   -0.3739    0.5067 H         1 <0>         0.0000
     18 H3          2.7036    1.3860    3.1324 H         1 <0>         0.0000
     19 H4         -2.0437    0.2146    2.1080 H         1 <0>         0.0000
     20 H5          1.5907    1.8981    5.7535 H         1 <0>         0.0000
     21 H6          0.7867    3.2660    4.9859 H         1 <0>         0.0000
     22 H7         -2.0533    2.5632    4.3714 H         1 <0>         0.0000
     23 H8         -2.3957    0.9089    4.8850 H         1 <0>         0.0000
     24 H9          0.4366    1.2888   10.5463 H         1 <0>         0.0000
     25 H10         2.0778    1.4434    9.9078 H         1 <0>         0.0000
     26 H11         2.1606   -0.8822    9.3049 H         1 <0>         0.0000
     27 H12         0.6795   -1.0996   10.2769 H         1 <0>         0.0000
     28 H13        -0.9398    2.5775    6.5172 H         1 <0>         0.0000
     29 H14        -0.4116   -0.2911    6.0346 H         1 <0>         0.0000
@<TRIPOS>BOND
     1    1    2 ar
     2    1    3 ar
     3    1   16 1
     4    2    4 ar
     5    2   17 1
     6    3    5 ar
     7    3   18 1
     8    4    6 ar
     9    4   19 1
    10    5    6 ar
    11    5    8 1
    12    6    9 1
    13    7   13 2
    14    7   14 1
    15    7   15 1
    16    8   12 1
    17    8   20 1
    18    8   21 1
    19    9   12 1
    20    9   22 1
    21    9   23 1
    22   10   11 1
    23   10   13 1
    24   10   24 1
    25   10   25 1
    26   11   15 1
    27   11   26 1
    28   11   27 1
    29   12   14 1
    30   12   28 1
    31   14   29 1
