@<TRIPOS>MOLECULE
*****
   38    41     0     0     0
SMALL
NO_CHARGES

@<TRIPOS>ATOM
      1 C1          2.1473   -0.1378   -0.0819 C.ar      1 <0>         0.0000
      2 C2          7.3699    1.8217    0.0472 C.ar      1 <0>         0.0000
      3 C3          0.8522   -0.6473   -0.1871 C.ar      1 <0>         0.0000
      4 C4          8.7336    1.5193    0.0940 C.ar      1 <0>         0.0000
      5 C5          8.2701   -0.8587   -0.0640 C.ar      1 <0>         0.0000
      6 C6          1.7341   -2.8214   -0.7781 C.ar      1 <0>         0.0000
      7 C7          6.8898   -0.5794   -0.1160 C.ar      1 <0>         0.0000
      8 C8          3.2433   -0.9712   -0.3208 C.ar      1 <0>         0.0000
      9 C9          3.0399   -2.3306   -0.6639 C.ar      1 <0>         0.0000
     10 C10         5.7153   -1.3733   -0.2172 C.2       1 <0>         0.0000
     11 C11         6.4711    0.7538   -0.0567 C.ar      1 <0>         0.0000
     12 C12         9.1789    0.2004    0.0400 C.ar      1 <0>         0.0000
     13 C13         0.6462   -1.9829   -0.5336 C.ar      1 <0>         0.0000
     14 C14         4.6257   -0.5229   -0.2167 C.2       1 <0>         0.0000
     15 C15         4.2234   -3.2262   -1.0058 C.3       1 <0>         0.0000
     16 C16         5.5371   -2.8524   -0.2835 C.3       1 <0>         0.0000
     17 C17        10.9071   -1.4334    0.0300 C.3       1 <0>         0.0000
     18 C18        -1.6888   -1.5565   -0.3851 C.3       1 <0>         0.0000
     19 N1          5.0929    0.7586   -0.1164 N.pl3     1 <0>         0.0000
     20 O1         10.5151   -0.0636    0.0895 O.3       1 <0>         0.0000
     21 O2         -0.6216   -2.4680   -0.6406 O.3       1 <0>         0.0000
     22 H1          2.2813    0.9051    0.1919 H         1 <0>         0.0000
     23 H2          7.0250    2.8494    0.0918 H         1 <0>         0.0000
     24 H3          0.0036    0.0049    0.0017 H         1 <0>         0.0000
     25 H4          9.4520    2.3317    0.1752 H         1 <0>         0.0000
     26 H5          8.6265   -1.8845   -0.1044 H         1 <0>         0.0000
     27 H6          1.5633   -3.8568   -1.0634 H         1 <0>         0.0000
     28 H7          3.9848   -4.2719   -0.7774 H         1 <0>         0.0000
     29 H8          4.3786   -3.1565   -2.0906 H         1 <0>         0.0000
     30 H9          6.3839   -3.3304   -0.7882 H         1 <0>         0.0000
     31 H10         5.5069   -3.2397    0.7430 H         1 <0>         0.0000
     32 H11        11.9965   -1.5038    0.0786 H         1 <0>         0.0000
     33 H12        10.5437   -1.8772   -0.9003 H         1 <0>         0.0000
     34 H13        10.4716   -1.9649    0.8794 H         1 <0>         0.0000
     35 H14        -2.6452   -2.0713   -0.5048 H         1 <0>         0.0000
     36 H15        -1.6256   -0.7160   -1.0807 H         1 <0>         0.0000
     37 H16        -1.6025   -1.1864    0.6393 H         1 <0>         0.0000
     38 H17         4.5217    1.5922   -0.0975 H         1 <0>         0.0000
@<TRIPOS>BOND
     1    1    3 ar
     2    1    8 ar
     3    1   22 1
     4    2    4 ar
     5    2   11 ar
     6    2   23 1
     7    3   13 ar
     8    3   24 1
     9    4   12 ar
    10    4   25 1
    11    5    7 ar
    12    5   12 ar
    13    5   26 1
    14    6    9 ar
    15    6   13 ar
    16    6   27 1
    17    7   10 1
    18    7   11 ar
    19    8    9 ar
    20    8   14 1
    21    9   15 1
    22   10   14 2
    23   10   16 1
    24   11   19 1
    25   12   20 1
    26   13   21 1
    27   14   19 1
    28   15   16 1
    29   15   28 1
    30   15   29 1
    31   16   30 1
    32   16   31 1
    33   17   20 1
    34   17   32 1
    35   17   33 1
    36   17   34 1
    37   18   21 1
    38   18   35 1
    39   18   36 1
    40   18   37 1
    41   19   38 1
