@<TRIPOS>MOLECULE
*****
   32    32     0     0     0
SMALL
NO_CHARGES

@<TRIPOS>ATOM
      1 C1          2.1412   -2.8353   -3.6277 C.ar      1 <0>         0.0000
      2 C2          0.4051   -1.3928   -4.4700 C.ar      1 <0>         0.0000
      3 C3          2.6180   -3.0435   -4.9282 C.ar      1 <0>         0.0000
      4 C4          0.8635   -1.5888   -5.7653 C.ar      1 <0>         0.0000
      5 C5          1.0342   -2.0147   -3.3728 C.ar      1 <0>         0.0000
      6 C6          1.9747   -2.4213   -6.0093 C.ar      1 <0>         0.0000
      7 C7         -1.3354   -2.6338   -0.3259 C.3       1 <0>         0.0000
      8 C8          0.4904   -1.8443   -1.9709 C.3       1 <0>         0.0000
      9 C9          3.5656   -3.4175   -9.1513 C.3       1 <0>         0.0000
     10 C10         3.4702   -3.3884   -7.6354 C.3       1 <0>         0.0000
     11 C11        -0.8156   -2.6283   -1.7561 C.3       1 <0>         0.0000
     12 N1         -0.5626   -4.0700   -2.2126 N.4       1 <0>         0.0000
     13 O1          2.4404   -4.0540   -9.7423 O.3       1 <0>         0.0000
     14 O2          2.3464   -2.5459   -7.3042 O.3       1 <0>         0.0000
     15 H1          2.6763   -3.2969   -2.7990 H         1 <0>         0.0000
     16 H2         -0.4413   -0.7284   -4.3060 H         1 <0>         0.0000
     17 H3          3.4899   -3.6685   -5.0796 H         1 <0>         0.0000
     18 H4          0.3885   -1.0971   -6.6088 H         1 <0>         0.0000
     19 H5         -0.5885   -3.0305    0.3703 H         1 <0>         0.0000
     20 H6         -1.5533   -1.6061   -0.0249 H         1 <0>         0.0000
     21 H7         -2.2601   -3.2104   -0.2226 H         1 <0>         0.0000
     22 H8          0.2640   -0.7949   -1.7567 H         1 <0>         0.0000
     23 H9          1.2303   -2.1617   -1.2265 H         1 <0>         0.0000
     24 H10         4.4422   -4.0060   -9.4350 H         1 <0>         0.0000
     25 H11         3.7019   -2.3970   -9.5334 H         1 <0>         0.0000
     26 H12         4.3851   -2.9764   -7.1911 H         1 <0>         0.0000
     27 H13         3.2935   -4.4005   -7.2537 H         1 <0>         0.0000
     28 H14        -1.5787   -2.2632   -2.4483 H         1 <0>         0.0000
     29 H15        -1.4303   -4.6097   -2.3068 H         1 <0>         0.0000
     30 H16         0.0456   -4.5653   -1.5496 H         1 <0>         0.0000
     31 H17        -0.0705   -4.0470   -3.1232 H         1 <0>         0.0000
     32 H18         1.6709   -3.4770   -9.6158 H         1 <0>         0.0000
@<TRIPOS>BOND
     1    1    3 ar
     2    1    5 ar
     3    1   15 1
     4    2    4 ar
     5    2    5 ar
     6    2   16 1
     7    3    6 ar
     8    3   17 1
     9    4    6 ar
    10    4   18 1
    11    5    8 1
    12    6   14 1
    13    7   11 1
    14    7   19 1
    15    7   20 1
    16    7   21 1
    17    8   11 1
    18    8   22 1
    19    8   23 1
    20    9   10 1
    21    9   13 1
    22    9   24 1
    23    9   25 1
    24   10   14 1
    25   10   26 1
    26   10   27 1
    27   11   12 1
    28   11   28 1
    29   12   29 1
    30   12   30 1
    31   12   31 1
    32   13   32 1
