@<TRIPOS>MOLECULE
*****
   25    26     0     0     0
SMALL
NO_CHARGES

@<TRIPOS>ATOM
      1 C1         -1.2760    0.6630    0.5000 C.ar      1 <0>         0.0000
      2 C2          5.7550    1.1510    0.2650 C.ar      1 <0>         0.0000
      3 C3         -0.4350    1.1890   -0.4750 C.ar      1 <0>         0.0000
      4 C4         -0.9340   -0.5210    1.1450 C.ar      1 <0>         0.0000
      5 C5          4.8960    0.7980    1.3020 C.ar      1 <0>         0.0000
      6 C6          5.5140    0.6860   -1.0240 C.ar      1 <0>         0.0000
      7 C7          0.7470    0.5310   -0.8040 C.ar      1 <0>         0.0000
      8 C8          0.2480   -1.1770    0.8150 C.ar      1 <0>         0.0000
      9 C9          3.7980   -0.0180    1.0480 C.ar      1 <0>         0.0000
     10 C10         4.4150   -0.1300   -1.2750 C.ar      1 <0>         0.0000
     11 C11         1.0930   -0.6540   -0.1610 C.ar      1 <0>         0.0000
     12 C12         3.5530   -0.4850   -0.2410 C.ar      1 <0>         0.0000
     13 C13         2.3680   -1.3640   -0.5160 C.3       1 <0>         0.0000
     14 H1         -2.1930    1.1730    0.7558 H         1 <0>         0.0000
     15 H2          6.6072    1.7849    0.4607 H         1 <0>         0.0000
     16 H3         -0.6990    2.1081   -0.9770 H         1 <0>         0.0000
     17 H4         -1.5859   -0.9312    1.9020 H         1 <0>         0.0000
     18 H5          5.0818    1.1574    2.3034 H         1 <0>         0.0000
     19 H6          6.1797    0.9583   -1.8297 H         1 <0>         0.0000
     20 H7          1.3982    0.9418   -1.5614 H         1 <0>         0.0000
     21 H8          0.5114   -2.0958    1.3179 H         1 <0>         0.0000
     22 H9          3.1328   -0.2904    1.8540 H         1 <0>         0.0000
     23 H10         4.2300   -0.4895   -2.2765 H         1 <0>         0.0000
     24 H11         2.4507   -2.2817    0.0849 H         1 <0>         0.0000
     25 H12         2.3514   -1.6255   -1.5843 H         1 <0>         0.0000
@<TRIPOS>BOND
     1    1    3 ar
     2    1    4 ar
     3    1   14 1
     4    2    5 ar
     5    2    6 ar
     6    2   15 1
     7    3    7 ar
     8    3   16 1
     9    4    8 ar
    10    4   17 1
    11    5    9 ar
    12    5   18 1
    13    6   10 ar
    14    6   19 1
    15    7   11 ar
    16    7   20 1
    17    8   11 ar
    18    8   21 1
    19    9   12 ar
    20    9   22 1
    21   10   12 ar
    22   10   23 1
    23   11   13 1
    24   12   13 1
    25   13   24 1
    26   13   25 1
