@<TRIPOS>MOLECULE
*****
   33    35     0     0     0
SMALL
NO_CHARGES

@<TRIPOS>ATOM
      1 C1          1.6016   -0.3842   -0.1799 C.ar      1 <0>         0.0000
      2 C2          0.5477    0.1257    0.5607 C.ar      1 <0>         0.0000
      3 C3          2.5293   -1.2580    0.4135 C.ar      1 <0>         0.0000
      4 C4         -2.5037    0.3423    6.4203 C.ar      1 <0>         0.0000
      5 C5         -3.2323    0.4741    7.5859 C.ar      1 <0>         0.0000
      6 C6          0.3839   -0.2203    1.9221 C.ar      1 <0>         0.0000
      7 C7          2.3792   -1.6055    1.7501 C.ar      1 <0>         0.0000
      8 C8          1.3081   -1.0933    2.5206 C.ar      1 <0>         0.0000
      9 C9         -2.9634    1.0547    5.2980 C.ar      1 <0>         0.0000
     10 C10        -4.3688    1.3028    7.5647 C.ar      1 <0>         0.0000
     11 C11        -2.2262    0.9529    4.0241 C.2       1 <0>         0.0000
     12 C12        -0.7376    0.3355    2.6712 C.2       1 <0>         0.0000
     13 C13        -5.2275    1.5031    8.7853 C.3       1 <0>         0.0000
     14 C14         4.3192   -3.0230    1.7847 C.3       1 <0>         0.0000
     15 N1         -4.0525    1.8339    5.3253 N.ar      1 <0>         0.0000
     16 N2         -4.7494    1.9561    6.4533 N.ar      1 <0>         0.0000
     17 N3         -1.0932    0.1711    3.9196 N.2       1 <0>         0.0000
     18 N4         -2.5701    1.5745    2.9155 N.2       1 <0>         0.0000
     19 O1         -1.5802    1.1673    2.0057 O.3       1 <0>         0.0000
     20 O2          1.2007   -1.4600    3.8220 O.3       1 <0>         0.0000
     21 O3          3.2042   -2.4459    2.4632 O.3       1 <0>         0.0000
     22 H1          1.7161   -0.1106   -1.2242 H         1 <0>         0.0000
     23 H2         -0.1681    0.7995    0.1040 H         1 <0>         0.0000
     24 H3          3.3514   -1.6526   -0.1734 H         1 <0>         0.0000
     25 H4         -1.6142   -0.2741    6.3436 H         1 <0>         0.0000
     26 H5         -2.9435   -0.0432    8.4975 H         1 <0>         0.0000
     27 H6         -4.6321    1.8683    9.6291 H         1 <0>         0.0000
     28 H7         -6.0156    2.2255    8.5671 H         1 <0>         0.0000
     29 H8         -5.6908    0.5595    9.0947 H         1 <0>         0.0000
     30 H9          4.8297   -3.6443    2.5209 H         1 <0>         0.0000
     31 H10         5.0025   -2.2459    1.4233 H         1 <0>         0.0000
     32 H11         3.9876   -3.6454    0.9457 H         1 <0>         0.0000
     33 H12         1.9452   -2.0625    4.0078 H         1 <0>         0.0000
@<TRIPOS>BOND
     1    1    2 ar
     2    1    3 ar
     3    1   22 1
     4    2    6 ar
     5    2   23 1
     6    3    7 ar
     7    3   24 1
     8    4    5 ar
     9    4    9 ar
    10    4   25 1
    11    5   10 ar
    12    5   26 1
    13    6    8 ar
    14    6   12 1
    15    7    8 ar
    16    7   21 1
    17    8   20 1
    18    9   11 1
    19    9   15 ar
    20   10   13 1
    21   10   16 ar
    22   11   17 1
    23   11   18 2
    24   12   17 2
    25   12   19 1
    26   13   27 1
    27   13   28 1
    28   13   29 1
    29   14   21 1
    30   14   30 1
    31   14   31 1
    32   14   32 1
    33   15   16 ar
    34   18   19 1
    35   20   33 1
