@<TRIPOS>MOLECULE
*****
   21    22     0     0     0
SMALL
NO_CHARGES

@<TRIPOS>ATOM
      1 C1         -0.9515   -0.7974    1.8189 C.ar      1 <0>         0.0000
      2 C2         -0.7066   -1.3574    3.0695 C.ar      1 <0>         0.0000
      3 C3          1.4374   -0.7613    1.4838 C.ar      1 <0>         0.0000
      4 C4          0.1514   -0.4974    1.0268 C.ar      1 <0>         0.0000
      5 C5          0.6182   -1.5836    3.4818 C.ar      1 <0>         0.0000
      6 C6          0.1985   -1.8025    6.0339 C.2       1 <0>         0.0000
      7 C7          1.2807   -3.7330    4.7693 C.3       1 <0>         0.0000
      8 C8          2.3395   -2.7297    5.0729 C.3       1 <0>         0.0000
      9 C9          0.9137   -2.2403    4.8002 C.3       1 <0>         0.0000
     10 N1          1.6622   -1.2937    2.6912 N.ar      1 <0>         0.0000
     11 O1          0.2390   -2.3863    7.1032 O.2       1 <0>         0.0000
     12 O2         -0.4941   -0.6402    5.8828 O.3       1 <0>         0.0000
     13 F1         -0.0249    0.0493   -0.2007 F         1 <0>         0.0000
     14 H1         -1.9577   -0.6013    1.4605 H         1 <0>         0.0000
     15 H2         -1.5338   -1.6113    3.7234 H         1 <0>         0.0000
     16 H3          2.2996   -0.5344    0.8596 H         1 <0>         0.0000
     17 H4          1.2718   -4.1885    3.7842 H         1 <0>         0.0000
     18 H5          0.8916   -4.3352    5.5833 H         1 <0>         0.0000
     19 H6          2.6762   -2.6481    6.1003 H         1 <0>         0.0000
     20 H7          3.0570   -2.4772    4.3015 H         1 <0>         0.0000
     21 H8         -0.8760   -0.4472    6.7608 H         1 <0>         0.0000
@<TRIPOS>BOND
     1    1    2 ar
     2    1    4 ar
     3    1   14 1
     4    2    5 ar
     5    2   15 1
     6    3    4 ar
     7    3   10 ar
     8    3   16 1
     9    4   13 1
    10    5    9 1
    11    5   10 ar
    12    6    9 1
    13    6   11 2
    14    6   12 1
    15    7    8 1
    16    7    9 1
    17    7   17 1
    18    7   18 1
    19    8    9 1
    20    8   19 1
    21    8   20 1
    22   12   21 1
