@<TRIPOS>MOLECULE
*****
   45    47     0     0     0
SMALL
NO_CHARGES

@<TRIPOS>ATOM
      1 C1         -1.7309    2.1744    3.9807 C.2       1 <0>         0.0000
      2 C2         -0.9446    3.6198    2.4771 C.2       1 <0>         0.0000
      3 C3         -1.0562    2.2573    2.7370 C.2       1 <0>         0.0000
      4 C4         -0.0909    0.0552    2.4565 C.2       1 <0>         0.0000
      5 C5         -0.9468   -1.6467   -0.4313 C.2       1 <0>         0.0000
      6 C6          0.4606   -1.0141    1.5040 C.3       1 <0>         0.0000
      7 C7          0.1052    0.7730   -1.8600 C.3       1 <0>         0.0000
      8 C8          0.8975    2.0671   -2.1191 C.3       1 <0>         0.0000
      9 C9         -0.7446    1.3914    0.4493 C.3       1 <0>         0.0000
     10 C10         1.7036    0.9861   -0.1103 C.3       1 <0>         0.0000
     11 C11         0.2406    0.5330   -0.3443 C.3       1 <0>         0.0000
     12 C12        -1.1492   -3.0276    0.1754 C.3       1 <0>         0.0000
     13 C13        -1.6819    5.6823    3.7268 C.3       1 <0>         0.0000
     14 C14         3.1815    4.4714   -1.4372 C.3       1 <0>         0.0000
     15 N1         -2.0193    3.3915    4.4497 N.2       1 <0>         0.0000
     16 N2         -1.5387    4.2524    3.5235 N.pl3     1 <0>         0.0000
     17 N3         -0.5812    1.2104    1.9034 N.am      1 <0>         0.0000
     18 N4          0.0684   -0.8626    0.1007 N.am      1 <0>         0.0000
     19 N5          1.8919    2.1422   -1.0117 N.pl3     1 <0>         0.0000
     20 O1         -0.0227   -0.1546    3.6657 O.2       1 <0>         0.0000
     21 O2         -1.6405   -1.2767   -1.3766 O.2       1 <0>         0.0000
     22 O3          2.7900    3.4335    0.9906 O.2       1 <0>         0.0000
     23 O4          0.8148    4.4105   -0.2684 O.2       1 <0>         0.0000
     24 S1          2.0832    3.6542   -0.2731 S.o2      1 <0>         0.0000
     25 H1         -1.9830    1.2926    4.5506 H         1 <0>         0.0000
     26 H2         -0.4825    4.1618    1.6628 H         1 <0>         0.0000
     27 H3          1.5511   -0.9934    1.6034 H         1 <0>         0.0000
     28 H4          0.1359   -1.9713    1.9001 H         1 <0>         0.0000
     29 H5         -0.9284    0.8512   -2.1884 H         1 <0>         0.0000
     30 H6          0.5547   -0.0702   -2.3895 H         1 <0>         0.0000
     31 H7          1.4135    2.0426   -3.0831 H         1 <0>         0.0000
     32 H8          0.2424    2.9422   -2.0975 H         1 <0>         0.0000
     33 H9         -0.5962    2.4456    0.2172 H         1 <0>         0.0000
     34 H10        -1.7658    1.1258    0.1529 H         1 <0>         0.0000
     35 H11         1.9377    1.2676    0.9151 H         1 <0>         0.0000
     36 H12         2.3838    0.1842   -0.4171 H         1 <0>         0.0000
     37 H13        -1.7263   -2.9629    1.1041 H         1 <0>         0.0000
     38 H14        -0.2083   -3.5401    0.3919 H         1 <0>         0.0000
     39 H15        -1.7267   -3.6119   -0.5411 H         1 <0>         0.0000
     40 H16        -2.7406    5.9512    3.7771 H         1 <0>         0.0000
     41 H17        -1.1930    5.9761    4.6591 H         1 <0>         0.0000
     42 H18        -1.2133    6.2053    2.8917 H         1 <0>         0.0000
     43 H19         3.3338    5.4857   -1.0644 H         1 <0>         0.0000
     44 H20         4.1187    3.9164   -1.4663 H         1 <0>         0.0000
     45 H21         2.7022    4.4960   -2.4167 H         1 <0>         0.0000
@<TRIPOS>BOND
     1    1    3 1
     2    1   15 2
     3    1   25 1
     4    2    3 2
     5    2   16 1
     6    2   26 1
     7    3   17 1
     8    4    6 1
     9    4   17 am
    10    4   20 2
    11    5   12 1
    12    5   18 am
    13    5   21 2
    14    6   18 1
    15    6   27 1
    16    6   28 1
    17    7    8 1
    18    7   11 1
    19    7   29 1
    20    7   30 1
    21    8   19 1
    22    8   31 1
    23    8   32 1
    24    9   11 1
    25    9   17 1
    26    9   33 1
    27    9   34 1
    28   10   11 1
    29   10   19 1
    30   10   35 1
    31   10   36 1
    32   11   18 1
    33   12   37 1
    34   12   38 1
    35   12   39 1
    36   13   16 1
    37   13   40 1
    38   13   41 1
    39   13   42 1
    40   14   24 1
    41   14   43 1
    42   14   44 1
    43   14   45 1
    44   15   16 1
    45   19   24 1
    46   22   24 2
    47   23   24 2
