@<TRIPOS>MOLECULE
*****
   49    52     0     0     0
SMALL
NO_CHARGES

@<TRIPOS>ATOM
      1 C1          2.7142    3.9964    0.0901 C.2       1 <0>         0.0000
      2 C2          0.7632    3.1308   -1.0457 C.2       1 <0>         0.0000
      3 C3         -3.3046   -0.9092   -1.3244 C.2       1 <0>         0.0000
      4 C4         -2.3975    2.2907   -2.8240 C.3       1 <0>         0.0000
      5 C5         -2.9422   -0.0749   -3.7231 C.3       1 <0>         0.0000
      6 C6         -1.2485    3.2023   -2.3975 C.3       1 <0>         0.0000
      7 C7         -3.5751   -1.5495    1.0223 C.3       1 <0>         0.0000
      8 C8         -2.0005   -2.8360   -0.3356 C.3       1 <0>         0.0000
      9 C9         -4.2050   -2.8566    1.4979 C.3       1 <0>         0.0000
     10 C10        -2.6587   -4.1220    0.1656 C.3       1 <0>         0.0000
     11 C11        -0.5047    1.0237   -1.3752 C.3       1 <0>         0.0000
     12 C12        -2.5776   -1.1282   -2.6734 C.3       1 <0>         0.0000
     13 C13        -1.8798    1.0338   -3.5390 C.3       1 <0>         0.0000
     14 C14        -0.7558    0.3357   -2.7248 C.3       1 <0>         0.0000
     15 C15         3.9562    4.2638    0.8815 C.3       1 <0>         0.0000
     16 C16        -3.7790   -5.1756    2.0265 C.3       1 <0>         0.0000
     17 N1          2.0792    4.8867   -0.6051 N.2       1 <0>         0.0000
     18 N2          0.9647    4.4142   -1.2564 N.2       1 <0>         0.0000
     19 N3         -0.2736    2.4448   -1.5924 N.pl3     1 <0>         0.0000
     20 N4         -2.9602   -1.7328   -0.2934 N.am      1 <0>         0.0000
     21 N5         -3.2164   -3.9360    1.5037 N.3       1 <0>         0.0000
     22 O1         -4.1521   -0.0167   -1.2009 O.2       1 <0>         0.0000
     23 O2         -1.1510   -1.0314   -2.5241 O.3       1 <0>         0.0000
     24 S1          1.9679    2.3894    0.0198 S.3       1 <0>         0.0000
     25 H1         -3.0056    2.0063   -1.9615 H         1 <0>         0.0000
     26 H2         -3.0541    2.8532   -3.4955 H         1 <0>         0.0000
     27 H3         -2.8589   -0.5237   -4.7162 H         1 <0>         0.0000
     28 H4         -3.9585    0.2949   -3.5858 H         1 <0>         0.0000
     29 H5         -0.7341    3.6219   -3.2710 H         1 <0>         0.0000
     30 H6         -1.6135    4.0512   -1.8102 H         1 <0>         0.0000
     31 H7         -4.3223   -0.7612    0.9424 H         1 <0>         0.0000
     32 H8         -2.8001   -1.2376    1.7346 H         1 <0>         0.0000
     33 H9         -1.1492   -2.5875    0.3108 H         1 <0>         0.0000
     34 H10        -1.6145   -2.9744   -1.3415 H         1 <0>         0.0000
     35 H11        -4.5845   -2.7212    2.5164 H         1 <0>         0.0000
     36 H12        -5.0681   -3.0989    0.8476 H         1 <0>         0.0000
     37 H13        -3.4364   -4.4358   -0.5595 H         1 <0>         0.0000
     38 H14        -1.9034   -4.9146    0.2051 H         1 <0>         0.0000
     39 H15        -1.3540    0.8579   -0.7008 H         1 <0>         0.0000
     40 H16         0.3721    0.5743   -0.9066 H         1 <0>         0.0000
     41 H17        -2.7885   -2.1424   -3.0271 H         1 <0>         0.0000
     42 H18        -1.4796    1.3326   -4.5127 H         1 <0>         0.0000
     43 H19         0.1851    0.3084   -3.2818 H         1 <0>         0.0000
     44 H20         3.8101    4.0441    1.9445 H         1 <0>         0.0000
     45 H21         4.7967    3.6579    0.5260 H         1 <0>         0.0000
     46 H22         4.2128    5.3196    0.7723 H         1 <0>         0.0000
     47 H23        -4.1441   -5.0131    3.0456 H         1 <0>         0.0000
     48 H24        -3.0028   -5.9467    2.0631 H         1 <0>         0.0000
     49 H25        -4.6186   -5.5598    1.4169 H         1 <0>         0.0000
@<TRIPOS>BOND
     1    1   15 1
     2    1   17 2
     3    1   24 1
     4    2   18 2
     5    2   19 1
     6    2   24 1
     7    3   12 1
     8    3   20 am
     9    3   22 2
    10    4    6 1
    11    4   13 1
    12    4   25 1
    13    4   26 1
    14    5   12 1
    15    5   13 1
    16    5   27 1
    17    5   28 1
    18    6   19 1
    19    6   29 1
    20    6   30 1
    21    7    9 1
    22    7   20 1
    23    7   31 1
    24    7   32 1
    25    8   10 1
    26    8   20 1
    27    8   33 1
    28    8   34 1
    29    9   21 1
    30    9   35 1
    31    9   36 1
    32   10   21 1
    33   10   37 1
    34   10   38 1
    35   11   14 1
    36   11   19 1
    37   11   39 1
    38   11   40 1
    39   12   23 1
    40   12   41 1
    41   13   14 1
    42   13   42 1
    43   14   23 1
    44   14   43 1
    45   15   44 1
    46   15   45 1
    47   15   46 1
    48   16   21 1
    49   16   47 1
    50   16   48 1
    51   16   49 1
    52   17   18 1
