@<TRIPOS>MOLECULE
*****
   36    38     0     0     0
SMALL
NO_CHARGES

@<TRIPOS>ATOM
      1 C1         -7.3516    1.2900   -1.2700 C.ar      1 <0>         0.0000
      2 C2         -7.9682    0.0381   -1.3413 C.ar      1 <0>         0.0000
      3 C3         -6.4990    1.5834   -0.2049 C.ar      1 <0>         0.0000
      4 C4         -7.7324   -0.9044   -0.3385 C.ar      1 <0>         0.0000
      5 C5         -6.2361    0.6568    0.8174 C.ar      1 <0>         0.0000
      6 C6         -6.8838   -0.5884    0.7246 C.ar      1 <0>         0.0000
      7 C7         -4.1488    0.0771    2.2865 C.2       1 <0>         0.0000
      8 C8         -0.7655    0.0449    0.2240 C.3       1 <0>         0.0000
      9 C9         -1.9459    0.9660   -0.1146 C.3       1 <0>         0.0000
     10 C10        -1.0050   -0.6841    1.5542 C.3       1 <0>         0.0000
     11 C11        -5.1459    2.4293    2.4181 C.3       1 <0>         0.0000
     12 C12        -6.0287    1.5203    3.2219 C.3       1 <0>         0.0000
     13 C13        -3.2814    0.2075   -0.0633 C.3       1 <0>         0.0000
     14 C14        -2.3635   -1.3946    1.5417 C.3       1 <0>         0.0000
     15 C15        -5.3411    0.9795    1.9776 C.3       1 <0>         0.0000
     16 N1         -3.4516   -0.4594    1.2304 N.am      1 <0>         0.0000
     17 O1         -3.8441   -0.1707    3.4558 O.2       1 <0>         0.0000
     18 Cl1        -6.6604   -1.7952    1.9803 Cl        1 <0>         0.0000
     19 H1         -7.5281    2.0334   -2.0426 H         1 <0>         0.0000
     20 H2         -8.6315   -0.2070   -2.1662 H         1 <0>         0.0000
     21 H3         -6.0084    2.5518   -0.1696 H         1 <0>         0.0000
     22 H4         -8.2088   -1.8793   -0.3694 H         1 <0>         0.0000
     23 H5          0.1672    0.6190    0.2612 H         1 <0>         0.0000
     24 H6         -0.6473   -0.6966   -0.5786 H         1 <0>         0.0000
     25 H7         -1.9875    1.7947    0.6041 H         1 <0>         0.0000
     26 H8         -1.8205    1.4070   -1.1110 H         1 <0>         0.0000
     27 H9         -0.2099   -1.4150    1.7424 H         1 <0>         0.0000
     28 H10        -0.9942    0.0302    2.3856 H         1 <0>         0.0000
     29 H11        -5.6066    3.2176    1.8319 H         1 <0>         0.0000
     30 H12        -4.1725    2.6775    2.8296 H         1 <0>         0.0000
     31 H13        -5.6576    1.1412    4.1666 H         1 <0>         0.0000
     32 H14        -7.1017    1.6623    3.1436 H         1 <0>         0.0000
     33 H15        -4.1085    0.8847   -0.2488 H         1 <0>         0.0000
     34 H16        -3.3095   -0.5584   -0.8497 H         1 <0>         0.0000
     35 H17        -2.3727   -2.1740    0.7681 H         1 <0>         0.0000
     36 H18        -2.5778   -1.8571    2.5038 H         1 <0>         0.0000
@<TRIPOS>BOND
     1    1    2 ar
     2    1    3 ar
     3    1   19 1
     4    2    4 ar
     5    2   20 1
     6    3    5 ar
     7    3   21 1
     8    4    6 ar
     9    4   22 1
    10    5    6 ar
    11    5   15 1
    12    6   18 1
    13    7   15 1
    14    7   16 am
    15    7   17 2
    16    8   10 1
    17    8    9 1
    18    8   23 1
    19    8   24 1
    20    9   13 1
    21    9   25 1
    22    9   26 1
    23   10   14 1
    24   10   27 1
    25   10   28 1
    26   11   12 1
    27   11   15 1
    28   11   29 1
    29   11   30 1
    30   12   15 1
    31   12   31 1
    32   12   32 1
    33   13   16 1
    34   13   33 1
    35   13   34 1
    36   14   16 1
    37   14   35 1
    38   14   36 1
