@<TRIPOS>MOLECULE
*****
   45    47     0     0     0
SMALL
NO_CHARGES

@<TRIPOS>ATOM
      1 C1          0.4628   -0.4984   -4.6028 C.2       1 <0>         0.0000
      2 C2         -1.6013    0.1237   -4.0366 C.2       1 <0>         0.0000
      3 C3         -0.4637   -0.4957   -3.5244 C.2       1 <0>         0.0000
      4 C4          0.7265   -1.8569   -1.8695 C.2       1 <0>         0.0000
      5 C5          1.0748   -1.2657    1.7338 C.2       1 <0>         0.0000
      6 C6          0.6720   -2.3096   -0.4163 C.3       1 <0>         0.0000
      7 C7          0.1007    1.1962   -0.1780 C.3       1 <0>         0.0000
      8 C8         -0.9488    2.2323    0.2273 C.3       1 <0>         0.0000
      9 C9         -1.2596   -0.6759   -1.1751 C.3       1 <0>         0.0000
     10 C10        -1.6960    0.1237    1.1454 C.3       1 <0>         0.0000
     11 C11        -0.5677   -0.1809    0.1091 C.3       1 <0>         0.0000
     12 C12         0.9179   -0.1576    2.7625 C.3       1 <0>         0.0000
     13 C13        -2.1398    1.1940   -6.2606 C.3       1 <0>         0.0000
     14 C14        -4.2132    2.4526    1.2757 C.3       1 <0>         0.0000
     15 N1         -0.0657    0.0805   -5.6848 N.2       1 <0>         0.0000
     16 N2         -1.3146    0.4434   -5.3312 N.pl3     1 <0>         0.0000
     17 N3         -0.2942   -0.9978   -2.2169 N.am      1 <0>         0.0000
     18 N4          0.3824   -1.2200    0.5303 N.am      1 <0>         0.0000
     19 N5         -1.5784    1.5687    1.3815 N.pl3     1 <0>         0.0000
     20 O1          1.5857   -2.2553   -2.6462 O.2       1 <0>         0.0000
     21 O2          1.8191   -2.2116    1.9877 O.2       1 <0>         0.0000
     22 O3         -2.2426    3.7220    2.4927 O.2       1 <0>         0.0000
     23 O4         -3.0272    1.4653    3.4245 O.2       1 <0>         0.0000
     24 S1         -2.7253    2.3547    2.3025 S.o2      1 <0>         0.0000
     25 H1          1.4577   -0.9139   -4.6256 H         1 <0>         0.0000
     26 H2         -2.5735    0.3284   -3.6113 H         1 <0>         0.0000
     27 H3         -0.0727   -3.1138   -0.3246 H         1 <0>         0.0000
     28 H4          1.6381   -2.7366   -0.1624 H         1 <0>         0.0000
     29 H5          0.3990    1.2841   -1.2250 H         1 <0>         0.0000
     30 H6          0.9952    1.3106    0.4339 H         1 <0>         0.0000
     31 H7         -0.5241    3.1876    0.5354 H         1 <0>         0.0000
     32 H8         -1.6680    2.4155   -0.5868 H         1 <0>         0.0000
     33 H9         -1.8990   -1.5398   -0.9518 H         1 <0>         0.0000
     34 H10        -1.9066    0.1254   -1.5297 H         1 <0>         0.0000
     35 H11        -2.6746   -0.1465    0.7220 H         1 <0>         0.0000
     36 H12        -1.5820   -0.4237    2.0784 H         1 <0>         0.0000
     37 H13         0.4247   -0.5833    3.6417 H         1 <0>         0.0000
     38 H14         0.3682    0.7297    2.4584 H         1 <0>         0.0000
     39 H15         1.9255    0.1292    3.0731 H         1 <0>         0.0000
     40 H16        -1.9202    2.2654   -6.2038 H         1 <0>         0.0000
     41 H17        -1.9307    0.8388   -7.2703 H         1 <0>         0.0000
     42 H18        -3.1940    1.0268   -6.0286 H         1 <0>         0.0000
     43 H19        -4.9725    2.9604    1.8731 H         1 <0>         0.0000
     44 H20        -3.9895    3.0347    0.3803 H         1 <0>         0.0000
     45 H21        -4.5466    1.4437    1.0280 H         1 <0>         0.0000
@<TRIPOS>BOND
     1    1    3 1
     2    1   15 2
     3    1   25 1
     4    2    3 2
     5    2   16 1
     6    2   26 1
     7    3   17 1
     8    4    6 1
     9    4   17 am
    10    4   20 2
    11    5   12 1
    12    5   18 am
    13    5   21 2
    14    6   18 1
    15    6   27 1
    16    6   28 1
    17    7    8 1
    18    7   11 1
    19    7   29 1
    20    7   30 1
    21    8   19 1
    22    8   31 1
    23    8   32 1
    24    9   11 1
    25    9   17 1
    26    9   33 1
    27    9   34 1
    28   10   11 1
    29   10   19 1
    30   10   35 1
    31   10   36 1
    32   11   18 1
    33   12   37 1
    34   12   38 1
    35   12   39 1
    36   13   16 1
    37   13   40 1
    38   13   41 1
    39   13   42 1
    40   14   24 1
    41   14   43 1
    42   14   44 1
    43   14   45 1
    44   15   16 1
    45   19   24 1
    46   22   24 2
    47   23   24 2
