@<TRIPOS>MOLECULE
*****
   49    52     0     0     0
SMALL
NO_CHARGES

@<TRIPOS>ATOM
      1 C1         -1.2916    2.4153    2.3744 C.2       1 <0>         0.0000
      2 C2         -0.7920    2.7509    0.0363 C.2       1 <0>         0.0000
      3 C3         -2.7073   -0.4551   -0.1232 C.2       1 <0>         0.0000
      4 C4         -1.3561    2.7242   -3.5367 C.3       1 <0>         0.0000
      5 C5         -2.6812    0.8703   -2.3057 C.3       1 <0>         0.0000
      6 C6         -1.1358    3.5427   -2.2477 C.3       1 <0>         0.0000
      7 C7         -2.5702   -1.4891    2.0831 C.3       1 <0>         0.0000
      8 C8         -1.2145   -2.4502    0.2907 C.3       1 <0>         0.0000
      9 C9         -2.9995   -2.8943    2.4932 C.3       1 <0>         0.0000
     10 C10        -1.6665   -3.8411    0.7364 C.3       1 <0>         0.0000
     11 C11         0.5175    1.7531   -1.8174 C.3       1 <0>         0.0000
     12 C12        -2.1871   -0.3750   -1.5718 C.3       1 <0>         0.0000
     13 C13        -1.5198    1.2242   -3.2527 C.3       1 <0>         0.0000
     14 C14        -0.2749    0.6517   -2.5308 C.3       1 <0>         0.0000
     15 C15        -1.4207    1.9922    3.8036 C.3       1 <0>         0.0000
     16 C16        -2.3127   -5.2074    2.6185 C.3       1 <0>         0.0000
     17 N1         -1.9523    3.3931    1.8391 N.2       1 <0>         0.0000
     18 N2         -1.6744    3.6003    0.5102 N.2       1 <0>         0.0000
     19 N3         -0.3648    2.7660   -1.2625 N.pl3     1 <0>         0.0000
     20 N4         -2.2174   -1.4568    0.6654 N.am      1 <0>         0.0000
     21 N5         -1.9548   -3.8674    2.1693 N.3       1 <0>         0.0000
     22 O1         -3.5461    0.3536    0.2796 O.2       1 <0>         0.0000
     23 O2         -0.7471   -0.2956   -1.5615 O.3       1 <0>         0.0000
     24 S1         -0.2128    1.5923    1.2388 S.3       1 <0>         0.0000
     25 H1         -2.2403    3.1135   -4.0518 H         1 <0>         0.0000
     26 H2         -0.5143    2.8632   -4.2257 H         1 <0>         0.0000
     27 H3         -3.6129    0.6817   -2.8440 H         1 <0>         0.0000
     28 H4         -2.8801    1.6557   -1.5764 H         1 <0>         0.0000
     29 H5         -0.6154    4.4819   -2.4749 H         1 <0>         0.0000
     30 H6         -2.0839    3.8094   -1.7810 H         1 <0>         0.0000
     31 H7         -3.3685   -0.7673    2.2514 H         1 <0>         0.0000
     32 H8         -1.6910   -1.1926    2.6719 H         1 <0>         0.0000
     33 H9         -0.2610   -2.1997    0.7736 H         1 <0>         0.0000
     34 H10        -1.0481   -2.4387   -0.7837 H         1 <0>         0.0000
     35 H11        -3.1765   -2.9146    3.5742 H         1 <0>         0.0000
     36 H12        -3.9552   -3.1422    1.9916 H         1 <0>         0.0000
     37 H13        -2.5513   -4.1412    0.1398 H         1 <0>         0.0000
     38 H14        -0.8655   -4.5584    0.5254 H         1 <0>         0.0000
     39 H15         1.1357    1.3142   -1.0320 H         1 <0>         0.0000
     40 H16         1.1995    2.2359   -2.5292 H         1 <0>         0.0000
     41 H17        -2.4851   -1.2879   -2.1098 H         1 <0>         0.0000
     42 H18        -1.6506    0.6951   -4.2022 H         1 <0>         0.0000
     43 H19         0.3907    0.1238   -3.2262 H         1 <0>         0.0000
     44 H20        -1.8084    0.9712    3.8831 H         1 <0>         0.0000
     45 H21        -0.4579    2.0291    4.3244 H         1 <0>         0.0000
     46 H22        -2.1179    2.6703    4.3003 H         1 <0>         0.0000
     47 H23        -2.4790   -5.2010    3.7005 H         1 <0>         0.0000
     48 H24        -1.4920   -5.9000    2.4055 H         1 <0>         0.0000
     49 H25        -3.2273   -5.5965    2.1320 H         1 <0>         0.0000
@<TRIPOS>BOND
     1    1   15 1
     2    1   17 2
     3    1   24 1
     4    2   18 2
     5    2   19 1
     6    2   24 1
     7    3   12 1
     8    3   20 am
     9    3   22 2
    10    4    6 1
    11    4   13 1
    12    4   25 1
    13    4   26 1
    14    5   12 1
    15    5   13 1
    16    5   27 1
    17    5   28 1
    18    6   19 1
    19    6   29 1
    20    6   30 1
    21    7    9 1
    22    7   20 1
    23    7   31 1
    24    7   32 1
    25    8   10 1
    26    8   20 1
    27    8   33 1
    28    8   34 1
    29    9   21 1
    30    9   35 1
    31    9   36 1
    32   10   21 1
    33   10   37 1
    34   10   38 1
    35   11   14 1
    36   11   19 1
    37   11   39 1
    38   11   40 1
    39   12   23 1
    40   12   41 1
    41   13   14 1
    42   13   42 1
    43   14   23 1
    44   14   43 1
    45   15   44 1
    46   15   45 1
    47   15   46 1
    48   16   21 1
    49   16   47 1
    50   16   48 1
    51   16   49 1
    52   17   18 1
