@<TRIPOS>MOLECULE
*****
   37    40     0     0     0
SMALL
NO_CHARGES

@<TRIPOS>ATOM
      1 C1         -2.8262   -6.1050   -0.0280 C.ar      1 <0>         0.0000
      2 C2         -2.3745   -1.5590    1.6500 C.ar      1 <0>         0.0000
      3 C3         -2.2320   -5.2806    0.9254 C.ar      1 <0>         0.0000
      4 C4         -1.9860   -2.8770    1.8211 C.ar      1 <0>         0.0000
      5 C5         -3.7060   -5.6088   -1.0296 C.ar      1 <0>         0.0000
      6 C6         -3.2656   -1.1228    0.6147 C.ar      1 <0>         0.0000
      7 C7         -2.4875   -3.8802    0.9330 C.ar      1 <0>         0.0000
      8 C8         -3.3558   -3.4327   -0.0712 C.ar      1 <0>         0.0000
      9 C9         -3.9623   -4.2506   -1.0360 C.ar      1 <0>         0.0000
     10 C10        -3.7460   -2.0847   -0.2455 C.ar      1 <0>         0.0000
     11 C11        -6.2039   -0.2773   -0.8444 C.2       1 <0>         0.0000
     12 C12        -7.8107   -0.1595    0.5666 C.2       1 <0>         0.0000
     13 C13        -4.8063   -3.3526   -1.8856 C.2       1 <0>         0.0000
     14 C14        -9.5576    0.4864    2.2246 C.3       1 <0>         0.0000
     15 C15        -8.6382   -1.8920    2.1568 C.3       1 <0>         0.0000
     16 C16        -5.2958   -0.8840   -1.8649 C.3       1 <0>         0.0000
     17 C17        -8.9997   -0.6349    1.3393 C.3       1 <0>         0.0000
     18 N1         -6.1081    0.8846   -0.2788 N.2       1 <0>         0.0000
     19 N2         -7.1657    0.9647    0.6430 N.2       1 <0>         0.0000
     20 N3         -4.6113   -2.0535   -1.3532 N.am      1 <0>         0.0000
     21 O1         -5.5253   -3.6093   -2.8401 O.2       1 <0>         0.0000
     22 O2         -7.2565   -1.0047   -0.3653 O.3       1 <0>         0.0000
     23 H1         -2.6110   -7.1700   -0.0063 H         1 <0>         0.0000
     24 H2         -1.9912   -0.8055    2.3329 H         1 <0>         0.0000
     25 H3         -1.5683   -5.7145    1.6698 H         1 <0>         0.0000
     26 H4         -1.3073   -3.1461    2.6261 H         1 <0>         0.0000
     27 H5         -4.1553   -6.2785   -1.7573 H         1 <0>         0.0000
     28 H6         -3.5445   -0.0765    0.5391 H         1 <0>         0.0000
     29 H7         -8.8188    0.7990    2.9678 H         1 <0>         0.0000
     30 H8        -10.4489    0.1299    2.7497 H         1 <0>         0.0000
     31 H9         -9.8278    1.3654    1.6339 H         1 <0>         0.0000
     32 H10        -7.8763   -1.6569    2.9072 H         1 <0>         0.0000
     33 H11        -8.2556   -2.6909    1.5157 H         1 <0>         0.0000
     34 H12        -9.5264   -2.2643    2.6764 H         1 <0>         0.0000
     35 H13        -5.8616   -1.2114   -2.7418 H         1 <0>         0.0000
     36 H14        -4.5823   -0.1126   -2.1698 H         1 <0>         0.0000
     37 H15        -9.7618   -0.9202    0.6021 H         1 <0>         0.0000
@<TRIPOS>BOND
     1    1    3 ar
     2    1    5 ar
     3    1   23 1
     4    2    4 ar
     5    2    6 ar
     6    2   24 1
     7    3    7 ar
     8    3   25 1
     9    4    7 ar
    10    4   26 1
    11    5    9 ar
    12    5   27 1
    13    6   10 ar
    14    6   28 1
    15    7    8 ar
    16    8    9 ar
    17    8   10 ar
    18    9   13 1
    19   10   20 1
    20   11   16 1
    21   11   18 2
    22   11   22 1
    23   12   17 1
    24   12   19 2
    25   12   22 1
    26   13   20 am
    27   13   21 2
    28   14   17 1
    29   14   29 1
    30   14   30 1
    31   14   31 1
    32   15   17 1
    33   15   32 1
    34   15   33 1
    35   15   34 1
    36   16   20 1
    37   16   35 1
    38   16   36 1
    39   17   37 1
    40   18   19 1
