@<TRIPOS>MOLECULE
*****
   44    47     0     0     0
SMALL
NO_CHARGES

@<TRIPOS>ATOM
      1 C1          0.7032   -0.3099   -4.6866 C.ar      1 <0>         0.0000
      2 C2          2.1541    1.3954   -3.7984 C.ar      1 <0>         0.0000
      3 C3          1.7584   -0.8258   -5.4459 C.ar      1 <0>         0.0000
      4 C4          3.2223    0.8921   -4.5413 C.ar      1 <0>         0.0000
      5 C5          0.8802    0.8047   -3.8562 C.ar      1 <0>         0.0000
      6 C6          3.0030   -0.2144   -5.3569 C.ar      1 <0>         0.0000
      7 C7          0.5954   -1.6734    1.2493 C.2       1 <0>         0.0000
      8 C8          0.1642    1.8615   -1.6397 C.2       1 <0>         0.0000
      9 C9         -1.8050    0.5729    0.7652 C.3       1 <0>         0.0000
     10 C10        -1.6111   -0.8749    0.2739 C.3       1 <0>         0.0000
     11 C11        -0.8947    1.0513    1.9093 C.3       1 <0>         0.0000
     12 C12        -1.2061    2.3284   -3.7498 C.3       1 <0>         0.0000
     13 C13        -1.6835    1.0017   -3.2247 C.3       1 <0>         0.0000
     14 C14         0.6254   -0.5255   -1.0481 C.3       1 <0>         0.0000
     15 C15         1.2597    1.3550    0.4739 C.3       1 <0>         0.0000
     16 C16        -0.1773   -1.3685   -0.0320 C.3       1 <0>         0.0000
     17 C17         0.6193    0.8013    1.7594 C.3       1 <0>         0.0000
     18 C18        -0.2284    1.4103   -3.0417 C.3       1 <0>         0.0000
     19 N1          0.9838   -0.6004    1.9976 N.am      1 <0>         0.0000
     20 N2          0.6672    0.9102   -0.7857 N.am      1 <0>         0.0000
     21 O1          0.8536   -2.8288    1.5890 O.2       1 <0>         0.0000
     22 O2          0.0396    3.0414   -1.2974 O.2       1 <0>         0.0000
     23 F1          4.0366   -0.7118   -6.0849 F         1 <0>         0.0000
     24 H1         -0.2636   -0.8008   -4.7440 H         1 <0>         0.0000
     25 H2          2.3106    2.2660   -3.1670 H         1 <0>         0.0000
     26 H3          1.6260   -1.6903   -6.0892 H         1 <0>         0.0000
     27 H4          4.2084    1.3446   -4.4996 H         1 <0>         0.0000
     28 H5         -1.7124    1.2689   -0.0682 H         1 <0>         0.0000
     29 H6         -2.8425    0.6656    1.1086 H         1 <0>         0.0000
     30 H7         -2.0326   -1.5680    1.0120 H         1 <0>         0.0000
     31 H8         -2.2111   -1.0043   -0.6353 H         1 <0>         0.0000
     32 H9         -1.0487    2.1296    2.0320 H         1 <0>         0.0000
     33 H10        -1.2012    0.5788    2.8502 H         1 <0>         0.0000
     34 H11        -1.0747    2.4292   -4.8223 H         1 <0>         0.0000
     35 H12        -1.4887    3.2312   -3.2196 H         1 <0>         0.0000
     36 H13        -2.3092    1.0050   -2.3374 H         1 <0>         0.0000
     37 H14        -1.9214    0.2129   -3.9311 H         1 <0>         0.0000
     38 H15         1.6500   -0.9167   -1.1039 H         1 <0>         0.0000
     39 H16         0.1763   -0.6800   -2.0240 H         1 <0>         0.0000
     40 H17         1.1883    2.4422    0.4843 H         1 <0>         0.0000
     41 H18         2.3206    1.0717    0.4811 H         1 <0>         0.0000
     42 H19        -0.2741   -2.3548   -0.4940 H         1 <0>         0.0000
     43 H20         1.1102    1.3520    2.5683 H         1 <0>         0.0000
     44 H21         1.4376   -0.8430    2.8709 H         1 <0>         0.0000
@<TRIPOS>BOND
     1    1    3 ar
     2    1    5 ar
     3    1   24 1
     4    2    4 ar
     5    2    5 ar
     6    2   25 1
     7    3    6 ar
     8    3   26 1
     9    4    6 ar
    10    4   27 1
    11    5   18 1
    12    6   23 1
    13    7   16 1
    14    7   19 am
    15    7   21 2
    16    8   18 1
    17    8   20 am
    18    8   22 2
    19    9   10 1
    20    9   11 1
    21    9   28 1
    22    9   29 1
    23   10   16 1
    24   10   30 1
    25   10   31 1
    26   11   17 1
    27   11   32 1
    28   11   33 1
    29   12   13 1
    30   12   18 1
    31   12   34 1
    32   12   35 1
    33   13   18 1
    34   13   36 1
    35   13   37 1
    36   14   16 1
    37   14   20 1
    38   14   38 1
    39   14   39 1
    40   15   17 1
    41   15   20 1
    42   15   40 1
    43   15   41 1
    44   16   42 1
    45   17   19 1
    46   17   43 1
    47   19   44 1
