@<TRIPOS>MOLECULE
*****
   44    47     0     0     0
SMALL
NO_CHARGES

@<TRIPOS>ATOM
      1 C1          3.8191    0.7462   -2.3806 C.ar      1 <0>         0.0000
      2 C2          4.2789    2.2934   -0.5927 C.ar      1 <0>         0.0000
      3 C3          5.1686    0.3978   -2.4442 C.ar      1 <0>         0.0000
      4 C4          5.6375    1.9649   -0.6451 C.ar      1 <0>         0.0000
      5 C5          3.3510    1.6955   -1.4560 C.ar      1 <0>         0.0000
      6 C6          6.0578    1.0181   -1.5712 C.ar      1 <0>         0.0000
      7 C7         -0.2753   -2.5276    1.1547 C.2       1 <0>         0.0000
      8 C8          0.9430    0.8587   -1.6713 C.2       1 <0>         0.0000
      9 C9         -1.3740    0.5739    0.7709 C.3       1 <0>         0.0000
     10 C10        -1.8717   -0.7837    0.2426 C.3       1 <0>         0.0000
     11 C11        -0.3363    0.5467    1.9087 C.3       1 <0>         0.0000
     12 C12         1.3261    3.1987   -0.6480 C.3       1 <0>         0.0000
     13 C13         1.4603    3.3207   -2.1415 C.3       1 <0>         0.0000
     14 C14         0.2990   -1.4187   -1.0817 C.3       1 <0>         0.0000
     15 C15         1.7461   -0.1096    0.4852 C.3       1 <0>         0.0000
     16 C16        -0.8127   -1.8546   -0.1048 C.3       1 <0>         0.0000
     17 C17         0.8969   -0.3677    1.7462 C.3       1 <0>         0.0000
     18 C18         1.8873    2.0367   -1.4570 C.3       1 <0>         0.0000
     19 N1          0.5790   -1.7872    1.9238 N.am      1 <0>         0.0000
     20 N2          1.0111   -0.1764   -0.7705 N.am      1 <0>         0.0000
     21 O1         -0.5885   -3.6770    1.4650 O.2       1 <0>         0.0000
     22 O2          0.1606    0.8414   -2.6254 O.2       1 <0>         0.0000
     23 F1          7.3743    0.6865   -1.6251 F         1 <0>         0.0000
     24 H1          3.1180    0.2767   -3.0655 H         1 <0>         0.0000
     25 H2          3.9514    3.0223    0.1424 H         1 <0>         0.0000
     26 H3          5.5342   -0.3353   -3.1568 H         1 <0>         0.0000
     27 H4          6.3600    2.4263    0.0213 H         1 <0>         0.0000
     28 H5         -0.9924    1.1584   -0.0659 H         1 <0>         0.0000
     29 H6         -2.2478    1.1254    1.1384 H         1 <0>         0.0000
     30 H7         -2.5572   -1.2344    0.9706 H         1 <0>         0.0000
     31 H8         -2.4637   -0.5909   -0.6588 H         1 <0>         0.0000
     32 H9          0.0240    1.5716    2.0646 H         1 <0>         0.0000
     33 H10        -0.8260    0.2462    2.8426 H         1 <0>         0.0000
     34 H11         1.9970    3.7687   -0.0130 H         1 <0>         0.0000
     35 H12         0.3277    3.0747   -0.2394 H         1 <0>         0.0000
     36 H13         0.5652    3.2656   -2.7512 H         1 <0>         0.0000
     37 H14         2.2600    3.9448   -2.5271 H         1 <0>         0.0000
     38 H15         1.0373   -2.2292   -1.1522 H         1 <0>         0.0000
     39 H16        -0.1420   -1.2765   -2.0675 H         1 <0>         0.0000
     40 H17         2.1808    0.8812    0.5810 H         1 <0>         0.0000
     41 H18         2.5716   -0.8333    0.4741 H         1 <0>         0.0000
     42 H19        -1.3380   -2.6684   -0.6118 H         1 <0>         0.0000
     43 H20         1.5693   -0.1332    2.5781 H         1 <0>         0.0000
     44 H21         0.8619   -2.2417    2.7845 H         1 <0>         0.0000
@<TRIPOS>BOND
     1    1    3 ar
     2    1    5 ar
     3    1   24 1
     4    2    4 ar
     5    2    5 ar
     6    2   25 1
     7    3    6 ar
     8    3   26 1
     9    4    6 ar
    10    4   27 1
    11    5   18 1
    12    6   23 1
    13    7   16 1
    14    7   19 am
    15    7   21 2
    16    8   18 1
    17    8   20 am
    18    8   22 2
    19    9   10 1
    20    9   11 1
    21    9   28 1
    22    9   29 1
    23   10   16 1
    24   10   30 1
    25   10   31 1
    26   11   17 1
    27   11   32 1
    28   11   33 1
    29   12   13 1
    30   12   18 1
    31   12   34 1
    32   12   35 1
    33   13   18 1
    34   13   36 1
    35   13   37 1
    36   14   16 1
    37   14   20 1
    38   14   38 1
    39   14   39 1
    40   15   17 1
    41   15   20 1
    42   15   40 1
    43   15   41 1
    44   16   42 1
    45   17   19 1
    46   17   43 1
    47   19   44 1
