@<TRIPOS>MOLECULE
*****
   36    38     0     0     0
SMALL
NO_CHARGES

@<TRIPOS>ATOM
      1 C1          1.3747    1.7306    4.5728 C.ar      1 <0>         0.0000
      2 C2          0.5587    0.6429    4.2561 C.ar      1 <0>         0.0000
      3 C3          2.7682    1.6003    4.5914 C.ar      1 <0>         0.0000
      4 C4          2.5161   -0.7463    3.9725 C.ar      1 <0>         0.0000
      5 C5          1.1233   -0.6053    3.9482 C.ar      1 <0>         0.0000
      6 C6          3.3058    0.3544    4.2914 C.ar      1 <0>         0.0000
      7 C7         -0.8212   -1.3668    2.5357 C.2       1 <0>         0.0000
      8 C8          0.9395    2.0763   -1.2859 C.3       1 <0>         0.0000
      9 C9          0.7594    0.7421   -1.9911 C.3       1 <0>         0.0000
     10 C10         1.4331    0.2046    0.4647 C.3       1 <0>         0.0000
     11 C11        -0.9732    0.7959   -0.0490 C.3       1 <0>         0.0000
     12 C12         0.9662   -1.2273    0.7690 C.3       1 <0>         0.0000
     13 C13        -1.3629   -0.6561    0.2630 C.3       1 <0>         0.0000
     14 C14         0.4748    0.8733   -0.5085 C.3       1 <0>         0.0000
     15 C15         0.2310   -1.7744    3.5720 C.3       1 <0>         0.0000
     16 N1         -0.4235   -1.2335    1.2312 N.am      1 <0>         0.0000
     17 O1         -1.9817   -1.1515    2.8990 O.2       1 <0>         0.0000
     18 F1          4.6569    0.2007    4.3029 F         1 <0>         0.0000
     19 H1          0.9259    2.6924    4.8056 H         1 <0>         0.0000
     20 H2         -0.5216    0.7573    4.2362 H         1 <0>         0.0000
     21 H3          3.4233    2.4319    4.8312 H         1 <0>         0.0000
     22 H4          2.9957   -1.6940    3.7422 H         1 <0>         0.0000
     23 H5          1.9536    2.4320   -1.1224 H         1 <0>         0.0000
     24 H6          0.2176    2.8620   -1.4929 H         1 <0>         0.0000
     25 H7         -0.0824    0.6365   -2.6707 H         1 <0>         0.0000
     26 H8          1.6537    0.2073   -2.3007 H         1 <0>         0.0000
     27 H9          1.4740    0.7723    1.4016 H         1 <0>         0.0000
     28 H10         2.4489    0.1773    0.0533 H         1 <0>         0.0000
     29 H11        -1.6445    1.2006   -0.8152 H         1 <0>         0.0000
     30 H12        -1.1099    1.3992    0.8575 H         1 <0>         0.0000
     31 H13         1.0191   -1.8326   -0.1452 H         1 <0>         0.0000
     32 H14         1.6140   -1.6962    1.5062 H         1 <0>         0.0000
     33 H15        -2.3644   -0.7212    0.6856 H         1 <0>         0.0000
     34 H16        -1.3243   -1.2600   -0.6523 H         1 <0>         0.0000
     35 H17         0.8335   -2.6208    3.2318 H         1 <0>         0.0000
     36 H18        -0.3402   -2.1043    4.4431 H         1 <0>         0.0000
@<TRIPOS>BOND
     1    1    2 ar
     2    1    3 ar
     3    1   19 1
     4    2    5 ar
     5    2   20 1
     6    3    6 ar
     7    3   21 1
     8    4    5 ar
     9    4    6 ar
    10    4   22 1
    11    5   15 1
    12    6   18 1
    13    7   15 1
    14    7   16 am
    15    7   17 2
    16    8    9 1
    17    8   14 1
    18    8   23 1
    19    8   24 1
    20    9   14 1
    21    9   25 1
    22    9   26 1
    23   10   12 1
    24   10   14 1
    25   10   27 1
    26   10   28 1
    27   11   13 1
    28   11   14 1
    29   11   29 1
    30   11   30 1
    31   12   16 1
    32   12   31 1
    33   12   32 1
    34   13   16 1
    35   13   33 1
    36   13   34 1
    37   15   35 1
    38   15   36 1
