@<TRIPOS>MOLECULE
*****
   26    27     0     0     0
SMALL
NO_CHARGES

@<TRIPOS>ATOM
      1 C1          2.3031   -3.2126   -1.1544 C.ar      1 <0>         0.0000
      2 C2          4.0283   -2.5567   -2.7272 C.ar      1 <0>         0.0000
      3 C3          1.7706    0.1689    0.0721 C.ar      1 <0>         0.0000
      4 C4          1.8377   -4.1645   -2.0633 C.ar      1 <0>         0.0000
      5 C5          3.5748   -3.5177   -3.6328 C.ar      1 <0>         0.0000
      6 C6          0.6348    0.5952    0.7540 C.ar      1 <0>         0.0000
      7 C7          1.2687   -0.8167    2.6206 C.ar      1 <0>         0.0000
      8 C8          2.4127   -1.2619    1.9362 C.ar      1 <0>         0.0000
      9 C9          3.3967   -2.4047   -1.4862 C.ar      1 <0>         0.0000
     10 C10         2.6600   -0.7548    0.6405 C.ar      1 <0>         0.0000
     11 C11         2.4786   -4.3140   -3.2950 C.ar      1 <0>         0.0000
     12 C12         0.3965    0.0942    2.0362 C.ar      1 <0>         0.0000
     13 C13         3.2307   -2.2850    2.7192 C.2       1 <0>         0.0000
     14 O1          2.8690   -2.6509    3.8192 O.2       1 <0>         0.0000
     15 O2          4.3515   -2.7861    2.1739 O.3       1 <0>         0.0000
     16 S1          4.0918   -1.1882   -0.3603 S.3       1 <0>         0.0000
     17 Cl1         1.8964   -5.5124   -4.4337 Cl        1 <0>         0.0000
     18 Cl2        -1.0195    0.6223    2.9176 Cl        1 <0>         0.0000
     19 H1          1.8029   -3.1042   -0.1976 H         1 <0>         0.0000
     20 H2          4.8701   -1.9239   -2.9954 H         1 <0>         0.0000
     21 H3          1.9740    0.5529   -0.9227 H         1 <0>         0.0000
     22 H4          0.9876   -4.7905   -1.8112 H         1 <0>         0.0000
     23 H5          4.0619   -3.6375   -4.5952 H         1 <0>         0.0000
     24 H6         -0.0481    1.3081    0.3032 H         1 <0>         0.0000
     25 H7          1.0836   -1.2101    3.6136 H         1 <0>         0.0000
     26 H8          4.5222   -2.3857    1.2871 H         1 <0>         0.0000
@<TRIPOS>BOND
     1    1    4 ar
     2    1    9 ar
     3    1   19 1
     4    2    5 ar
     5    2    9 ar
     6    2   20 1
     7    3    6 ar
     8    3   10 ar
     9    3   21 1
    10    4   11 ar
    11    4   22 1
    12    5   11 ar
    13    5   23 1
    14    6   12 ar
    15    6   24 1
    16    7    8 ar
    17    7   12 ar
    18    7   25 1
    19    8   10 ar
    20    8   13 1
    21    9   16 1
    22   10   16 1
    23   11   17 1
    24   12   18 1
    25   13   14 2
    26   13   15 1
    27   15   26 1
