@<TRIPOS>MOLECULE
*****
   36    38     0     0     0
SMALL
NO_CHARGES

@<TRIPOS>ATOM
      1 C1          1.1788   -4.6775    3.1708 C.ar      1 <0>         0.0000
      2 C2          1.6029   -3.3530    3.0223 C.ar      1 <0>         0.0000
      3 C3         -0.1334   -4.9637    3.5555 C.ar      1 <0>         0.0000
      4 C4         -0.5954   -2.5672    3.6507 C.ar      1 <0>         0.0000
      5 C5          0.7231   -2.2884    3.2605 C.ar      1 <0>         0.0000
      6 C6         -0.9914   -3.8918    3.7860 C.ar      1 <0>         0.0000
      7 C7          0.1353    0.0491    2.4507 C.2       1 <0>         0.0000
      8 C8          0.5753    1.0179   -3.0743 C.3       1 <0>         0.0000
      9 C9         -0.4909   -0.0340   -2.8169 C.3       1 <0>         0.0000
     10 C10         1.2878   -0.3035   -0.9375 C.3       1 <0>         0.0000
     11 C11        -0.4525    1.5115   -0.7213 C.3       1 <0>         0.0000
     12 C12         0.6128   -1.0420    0.2269 C.3       1 <0>         0.0000
     13 C13        -1.0835    0.7278    0.4363 C.3       1 <0>         0.0000
     14 C14         0.2829    0.5739   -1.6652 C.3       1 <0>         0.0000
     15 C15         1.1817   -0.8488    3.1171 C.3       1 <0>         0.0000
     16 N1         -0.0728   -0.0959    1.1060 N.am      1 <0>         0.0000
     17 O1         -0.5052    0.8518    3.1368 O.2       1 <0>         0.0000
     18 F1         -2.2716   -4.1527    4.1595 F         1 <0>         0.0000
     19 H1          1.8726   -5.4928    2.9841 H         1 <0>         0.0000
     20 H2          2.6271   -3.1466    2.7205 H         1 <0>         0.0000
     21 H3         -0.4916   -5.9814    3.6754 H         1 <0>         0.0000
     22 H4         -1.3049   -1.7681    3.8466 H         1 <0>         0.0000
     23 H5          1.5072    0.6952   -3.5316 H         1 <0>         0.0000
     24 H6          0.2487    2.0096   -3.3763 H         1 <0>         0.0000
     25 H7         -1.5309    0.2536   -2.9472 H         1 <0>         0.0000
     26 H8         -0.2720   -1.0596   -3.1029 H         1 <0>         0.0000
     27 H9          2.1028    0.3175   -0.5425 H         1 <0>         0.0000
     28 H10         1.7333   -1.0344   -1.6224 H         1 <0>         0.0000
     29 H11        -1.2339    2.0640   -1.2555 H         1 <0>         0.0000
     30 H12         0.2480    2.2500   -0.3106 H         1 <0>         0.0000
     31 H13        -0.1277   -1.7517   -0.1676 H         1 <0>         0.0000
     32 H14         1.3392   -1.6235    0.7892 H         1 <0>         0.0000
     33 H15        -1.5200    1.3898    1.1827 H         1 <0>         0.0000
     34 H16        -1.8736    0.0677    0.0515 H         1 <0>         0.0000
     35 H17         1.3389   -0.4105    4.1058 H         1 <0>         0.0000
     36 H18         2.1387   -0.8109    2.5886 H         1 <0>         0.0000
@<TRIPOS>BOND
     1    1    2 ar
     2    1    3 ar
     3    1   19 1
     4    2    5 ar
     5    2   20 1
     6    3    6 ar
     7    3   21 1
     8    4    5 ar
     9    4    6 ar
    10    4   22 1
    11    5   15 1
    12    6   18 1
    13    7   15 1
    14    7   16 am
    15    7   17 2
    16    8    9 1
    17    8   14 1
    18    8   23 1
    19    8   24 1
    20    9   14 1
    21    9   25 1
    22    9   26 1
    23   10   12 1
    24   10   14 1
    25   10   27 1
    26   10   28 1
    27   11   13 1
    28   11   14 1
    29   11   29 1
    30   11   30 1
    31   12   16 1
    32   12   31 1
    33   12   32 1
    34   13   16 1
    35   13   33 1
    36   13   34 1
    37   15   35 1
    38   15   36 1
