@<TRIPOS>MOLECULE
*****
   34    36     0     0     0
SMALL
NO_CHARGES

@<TRIPOS>ATOM
      1 C1         -2.3755    2.8358    9.0508 C.ar      1 <0>         0.0000
      2 C2         -6.1702    0.0858    8.5532 C.ar      1 <0>         0.0000
      3 C3         -5.3720   -0.0682    7.4153 C.ar      1 <0>         0.0000
      4 C4         -1.0097    2.8887    8.7130 C.ar      1 <0>         0.0000
      5 C5         -3.3715    2.9979    8.0893 C.ar      1 <0>         0.0000
      6 C6         -6.8996    1.2641    8.7302 C.ar      1 <0>         0.0000
      7 C7         -5.2885    0.9532    6.4709 C.ar      1 <0>         0.0000
      8 C8         -0.6146    3.1266    7.3972 C.ar      1 <0>         0.0000
      9 C9         -3.0074    3.2094    6.7467 C.ar      1 <0>         0.0000
     10 C10        -6.8342    2.2861    7.7803 C.ar      1 <0>         0.0000
     11 C11        -6.0045    2.1475    6.6486 C.ar      1 <0>         0.0000
     12 C12        -3.7090    3.4663    5.4860 C.2       1 <0>         0.0000
     13 C13        -1.6204    3.2908    6.4434 C.ar      1 <0>         0.0000
     14 C14        -2.7313    3.7300    4.5183 C.2       1 <0>         0.0000
     15 C15        -2.9117    4.0785    3.0800 C.3       1 <0>         0.0000
     16 C16        -7.6246    3.5548    7.9832 C.3       1 <0>         0.0000
     17 N1         -6.0571    3.1222    5.6181 N.2       1 <0>         0.0000
     18 N2         -5.0320    3.6012    5.0592 N.2       1 <0>         0.0000
     19 N3         -1.4956    3.5864    5.0872 N.pl3     1 <0>         0.0000
     20 F1         -8.2164    3.5852    9.2082 F         1 <0>         0.0000
     21 F2         -6.8381    4.6603    7.9076 F         1 <0>         0.0000
     22 F3         -8.6138    3.7049    7.0733 F         1 <0>         0.0000
     23 H1         -2.6621    2.6668   10.0851 H         1 <0>         0.0000
     24 H2         -6.2291   -0.7050    9.2952 H         1 <0>         0.0000
     25 H3         -4.8064   -0.9841    7.2658 H         1 <0>         0.0000
     26 H4         -0.2567    2.7564    9.4849 H         1 <0>         0.0000
     27 H5         -4.4089    2.9694    8.3923 H         1 <0>         0.0000
     28 H6         -7.5212    1.3936    9.6096 H         1 <0>         0.0000
     29 H7         -4.6702    0.8363    5.5868 H         1 <0>         0.0000
     30 H8          0.4365    3.1930    7.1268 H         1 <0>         0.0000
     31 H9         -2.2328    4.8854    2.7822 H         1 <0>         0.0000
     32 H10        -2.7144    3.2161    2.4318 H         1 <0>         0.0000
     33 H11        -3.9429    4.3945    2.9173 H         1 <0>         0.0000
     34 H12        -0.6198    3.7237    4.6008 H         1 <0>         0.0000
@<TRIPOS>BOND
     1    1    4 ar
     2    1    5 ar
     3    1   23 1
     4    2    3 ar
     5    2    6 ar
     6    2   24 1
     7    3    7 ar
     8    3   25 1
     9    4    8 ar
    10    4   26 1
    11    5    9 ar
    12    5   27 1
    13    6   10 ar
    14    6   28 1
    15    7   11 ar
    16    7   29 1
    17    8   13 ar
    18    8   30 1
    19    9   12 1
    20    9   13 ar
    21   10   11 ar
    22   10   16 1
    23   11   17 1
    24   12   14 2
    25   12   18 1
    26   13   19 1
    27   14   15 1
    28   14   19 1
    29   15   31 1
    30   15   32 1
    31   15   33 1
    32   16   20 1
    33   16   21 1
    34   16   22 1
    35   17   18 2
    36   19   34 1
