@<TRIPOS>MOLECULE
*****
   40    42     0     0     0
SMALL
NO_CHARGES

@<TRIPOS>ATOM
      1 C1         -1.2668   -0.8677    1.6927 C.ar      1 <0>         0.0000
      2 C2         -2.2484    0.0451    2.0974 C.ar      1 <0>         0.0000
      3 C3         -1.6907    1.5200    0.2658 C.ar      1 <0>         0.0000
      4 C4         -1.6114    3.3902   -3.9583 C.ar      1 <0>         0.0000
      5 C5         -2.6367    1.5684   -5.0831 C.ar      1 <0>         0.0000
      6 C6         -2.4761    2.9675   -4.9775 C.ar      1 <0>         0.0000
      7 C7         -0.4926   -0.5787    0.5689 C.ar      1 <0>         0.0000
      8 C8         -0.7096    0.6136   -0.1327 C.ar      1 <0>         0.0000
      9 C9         -2.4728    1.2443    1.3984 C.ar      1 <0>         0.0000
     10 C10        -1.1959    1.2361   -3.3482 C.ar      1 <0>         0.0000
     11 C11        -3.2021    3.8760   -5.8973 C.2       1 <0>         0.0000
     12 C12         0.6037   -1.3902   -0.0887 C.3       1 <0>         0.0000
     13 C13         0.1945    0.6834   -1.3517 C.3       1 <0>         0.0000
     14 C14         1.3000   -0.3570   -1.0122 C.3       1 <0>         0.0000
     15 C15        -3.5145    2.2304    1.8771 C.3       1 <0>         0.0000
     16 C16        -2.9906    5.3743   -5.7513 C.3       1 <0>         0.0000
     17 C17         2.0450   -0.9471   -2.2069 C.3       1 <0>         0.0000
     18 N1         -0.9754    2.5543   -3.1389 N.ar      1 <0>         0.0000
     19 N2         -2.0180    0.7035   -4.2946 N.ar      1 <0>         0.0000
     20 N3         -0.5388    0.3372   -2.5738 N.pl3     1 <0>         0.0000
     21 O1         -3.9566    3.4300   -6.7586 O.2       1 <0>         0.0000
     22 H1         -1.1164   -1.7885    2.2522 H         1 <0>         0.0000
     23 H2         -2.8535   -0.1765    2.9743 H         1 <0>         0.0000
     24 H3         -1.8474    2.4360   -0.2998 H         1 <0>         0.0000
     25 H4         -1.4230    4.4488   -3.7842 H         1 <0>         0.0000
     26 H5         -3.3006    1.1641   -5.8446 H         1 <0>         0.0000
     27 H6          1.3005   -1.8368    0.6281 H         1 <0>         0.0000
     28 H7          0.1784   -2.2192   -0.6727 H         1 <0>         0.0000
     29 H8          0.6097    1.6770   -1.5171 H         1 <0>         0.0000
     30 H9          2.0194    0.1871   -0.3887 H         1 <0>         0.0000
     31 H10        -3.0883    2.9295    2.6070 H         1 <0>         0.0000
     32 H11        -3.9119    2.8243    1.0485 H         1 <0>         0.0000
     33 H12        -4.3535    1.7224    2.3622 H         1 <0>         0.0000
     34 H13        -1.9350    5.6365   -5.8822 H         1 <0>         0.0000
     35 H14        -3.2933    5.7173   -4.7557 H         1 <0>         0.0000
     36 H15        -3.5864    5.8895   -6.5056 H         1 <0>         0.0000
     37 H16         1.3835   -1.5338   -2.8523 H         1 <0>         0.0000
     38 H17         2.8492   -1.6088   -1.8675 H         1 <0>         0.0000
     39 H18         2.4921   -0.1600   -2.8230 H         1 <0>         0.0000
     40 H19        -0.8843   -0.6105   -2.6737 H         1 <0>         0.0000
@<TRIPOS>BOND
     1    1    2 ar
     2    1    7 ar
     3    1   22 1
     4    2    9 ar
     5    2   23 1
     6    3    8 ar
     7    3    9 ar
     8    3   24 1
     9    4    6 ar
    10    4   18 ar
    11    4   25 1
    12    5    6 ar
    13    5   19 ar
    14    5   26 1
    15    6   11 1
    16    7    8 ar
    17    7   12 1
    18    8   13 1
    19    9   15 1
    20   10   19 ar
    21   10   18 ar
    22   10   20 1
    23   11   16 1
    24   11   21 2
    25   12   14 1
    26   12   27 1
    27   12   28 1
    28   13   14 1
    29   13   20 1
    30   13   29 1
    31   14   17 1
    32   14   30 1
    33   15   31 1
    34   15   32 1
    35   15   33 1
    36   16   34 1
    37   16   35 1
    38   16   36 1
    39   17   37 1
    40   17   38 1
    41   17   39 1
    42   20   40 1
