@<TRIPOS>MOLECULE
*****
   45    47     0     0     0
SMALL
NO_CHARGES

@<TRIPOS>ATOM
      1 C1          0.9271   -5.8704   -2.8542 C.ar      1 <0>         0.0000
      2 C2          0.4344   -4.1044   -4.3990 C.ar      1 <0>         0.0000
      3 C3          2.0506   -5.7298   -6.3930 C.ar      1 <0>         0.0000
      4 C4          3.4456   -6.2762   -4.5020 C.ar      1 <0>         0.0000
      5 C5         -0.0514   -5.3819   -1.9895 C.ar      1 <0>         0.0000
      6 C6         -0.5450   -3.6206   -3.5293 C.ar      1 <0>         0.0000
      7 C7          3.0279   -6.2107   -7.2663 C.ar      1 <0>         0.0000
      8 C8          4.4350   -6.7621   -5.3588 C.ar      1 <0>         0.0000
      9 C9          1.1951   -5.2399   -4.0807 C.ar      1 <0>         0.0000
     10 C10         2.2388   -5.7530   -4.9996 C.ar      1 <0>         0.0000
     11 C11        -0.8111   -4.2402   -2.2975 C.ar      1 <0>         0.0000
     12 C12         4.2065   -6.7201   -6.7304 C.ar      1 <0>         0.0000
     13 C13        -4.7451   -4.0345   -3.4358 C.2       1 <0>         0.0000
     14 C14        -0.8437   -1.4931    0.2564 C.3       1 <0>         0.0000
     15 C15        -1.2589   -1.3053   -1.2092 C.3       1 <0>         0.0000
     16 C16        -0.4544   -2.9503    0.5402 C.3       1 <0>         0.0000
     17 C17        -2.3551   -2.3023   -1.6119 C.3       1 <0>         0.0000
     18 C18        -1.5743   -3.9113    0.1213 C.3       1 <0>         0.0000
     19 C19        -1.9474   -3.7751   -1.3753 C.3       1 <0>         0.0000
     20 C20        -3.1685   -4.6994   -1.6359 C.3       1 <0>         0.0000
     21 N1         -3.6300   -4.6965   -3.0165 N.am      1 <0>         0.0000
     22 O1         -5.5192   -3.4138   -2.7162 O.2       1 <0>         0.0000
     23 F1          5.1631   -7.1903   -7.5724 F         1 <0>         0.0000
     24 H1          1.4712   -6.7716   -2.5835 H         1 <0>         0.0000
     25 H2          0.6285   -3.5697   -5.3253 H         1 <0>         0.0000
     26 H3          1.1169   -5.3551   -6.8025 H         1 <0>         0.0000
     27 H4          3.6279   -6.2791   -3.4313 H         1 <0>         0.0000
     28 H5         -0.2252   -5.9166   -1.0609 H         1 <0>         0.0000
     29 H6         -1.0948   -2.7332   -3.8217 H         1 <0>         0.0000
     30 H7          2.8830   -6.2040   -8.3422 H         1 <0>         0.0000
     31 H8          5.3725   -7.1572   -4.9795 H         1 <0>         0.0000
     32 H9         -4.8928   -4.1246   -4.5294 H         1 <0>         0.0000
     33 H10        -1.6827   -1.2125    0.9079 H         1 <0>         0.0000
     34 H11        -0.0133   -0.8222    0.5055 H         1 <0>         0.0000
     35 H12        -1.6199   -0.2830   -1.3714 H         1 <0>         0.0000
     36 H13        -0.3795   -1.4331   -1.8515 H         1 <0>         0.0000
     37 H14         0.4648   -3.1991   -0.0043 H         1 <0>         0.0000
     38 H15        -0.2356   -3.0834    1.6062 H         1 <0>         0.0000
     39 H16        -3.2523   -2.1095   -1.0123 H         1 <0>         0.0000
     40 H17        -2.6645   -2.1407   -2.6479 H         1 <0>         0.0000
     41 H18        -1.3050   -4.9429    0.3692 H         1 <0>         0.0000
     42 H19        -2.4739   -3.6873    0.7098 H         1 <0>         0.0000
     43 H20        -4.0116   -4.3773   -1.0215 H         1 <0>         0.0000
     44 H21        -2.9126   -5.7269   -1.3537 H         1 <0>         0.0000
     45 H22        -3.0294   -5.1048   -3.7221 H         1 <0>         0.0000
@<TRIPOS>BOND
     1    1    5 ar
     2    1    9 ar
     3    1   24 1
     4    2    6 ar
     5    2    9 ar
     6    2   25 1
     7    3    7 ar
     8    3   10 ar
     9    3   26 1
    10    4    8 ar
    11    4   10 ar
    12    4   27 1
    13    5   11 ar
    14    5   28 1
    15    6   11 ar
    16    6   29 1
    17    7   12 ar
    18    7   30 1
    19    8   12 ar
    20    8   31 1
    21    9   10 1
    22   11   19 1
    23   12   23 1
    24   13   21 am
    25   13   22 2
    26   13   32 1
    27   14   16 1
    28   14   15 1
    29   14   33 1
    30   14   34 1
    31   15   17 1
    32   15   35 1
    33   15   36 1
    34   16   18 1
    35   16   37 1
    36   16   38 1
    37   17   19 1
    38   17   39 1
    39   17   40 1
    40   18   19 1
    41   18   41 1
    42   18   42 1
    43   19   20 1
    44   20   21 1
    45   20   43 1
    46   20   44 1
    47   21   45 1
