@<TRIPOS>MOLECULE
*****
   22    22     0     0     0
SMALL
NO_CHARGES

@<TRIPOS>ATOM
      1 C1         -0.7090    0.7636   -1.2314 C.3       1 <0>         0.0000
      2 C2          1.4770    0.1797   -0.2847 C.3       1 <0>         0.0000
      3 C3          0.6697    1.3392   -0.8778 C.3       1 <0>         0.0000
      4 C4          0.5622    2.5073    0.1054 C.3       1 <0>         0.0000
      5 C5         -3.3976   -0.3530   -0.2114 C.3       1 <0>         0.0000
      6 N1         -1.0846   -0.0534   -0.0473 N.pl3     1 <0>         0.0000
      7 N2         -2.0738   -0.9970   -0.2318 N.3       1 <0>         0.0000
      8 O1          0.4326   -2.2089   -0.0003 O.2       1 <0>         0.0000
      9 O2          0.4104   -0.6494    1.9972 O.2       1 <0>         0.0000
     10 S1          0.3154   -0.8810    0.5707 S.o2      1 <0>         0.0000
     11 H1         -1.4479    1.5533   -1.3990 H         1 <0>         0.0000
     12 H2         -0.6494    0.1340   -2.1270 H         1 <0>         0.0000
     13 H3          1.9239   -0.4165   -1.0870 H         1 <0>         0.0000
     14 H4          2.2567    0.5021    0.4094 H         1 <0>         0.0000
     15 H5          1.1629    1.7138   -1.7822 H         1 <0>         0.0000
     16 H6          0.0760    2.1730    1.0190 H         1 <0>         0.0000
     17 H7         -0.0232    3.3081   -0.3407 H         1 <0>         0.0000
     18 H8          1.5568    2.8784    0.3427 H         1 <0>         0.0000
     19 H9         -3.5458    0.1710    0.7364 H         1 <0>         0.0000
     20 H10        -4.1847   -1.1033   -0.3255 H         1 <0>         0.0000
     21 H11        -3.4797    0.3682   -1.0289 H         1 <0>         0.0000
     22 H12        -1.9781   -1.4789   -1.1441 H         1 <0>         0.0000
@<TRIPOS>BOND
     1    1    3 1
     2    1    6 1
     3    1   11 1
     4    1   12 1
     5    2    3 1
     6    2   10 1
     7    2   13 1
     8    2   14 1
     9    3    4 1
    10    3   15 1
    11    4   16 1
    12    4   17 1
    13    4   18 1
    14    5    7 1
    15    5   19 1
    16    5   20 1
    17    5   21 1
    18    6    7 1
    19    6   10 1
    20    7   22 1
    21    8   10 2
    22    9   10 2
