@<TRIPOS>MOLECULE
*****
   41    42     0     0     0
SMALL
NO_CHARGES

@<TRIPOS>ATOM
      1 C1         -7.0250   -2.0577   -5.0523 C.ar      1 <0>         0.0000
      2 C2          1.3687    1.9632   -3.4535 C.ar      1 <0>         0.0000
      3 C3         -6.6493   -0.7473   -5.3639 C.ar      1 <0>         0.0000
      4 C4         -6.4702   -2.6856   -3.9311 C.ar      1 <0>         0.0000
      5 C5          2.1798    1.8151   -2.3225 C.ar      1 <0>         0.0000
      6 C6          0.1646    1.2565   -3.5346 C.ar      1 <0>         0.0000
      7 C7         -5.7262   -0.0720   -4.5584 C.ar      1 <0>         0.0000
      8 C8         -5.5486   -2.0062   -3.1301 C.ar      1 <0>         0.0000
      9 C9          1.7844    0.9699   -1.2816 C.ar      1 <0>         0.0000
     10 C10        -0.2255    0.4121   -2.4898 C.ar      1 <0>         0.0000
     11 C11        -5.1635   -0.6908   -3.4331 C.ar      1 <0>         0.0000
     12 C12         0.5774    0.2562   -1.3499 C.ar      1 <0>         0.0000
     13 C13        -2.9098    0.4864    0.2554 C.2       1 <0>         0.0000
     14 C14        -4.2038    0.0496   -2.5309 C.3       1 <0>         0.0000
     15 C15         0.1154   -0.5964   -0.1915 C.3       1 <0>         0.0000
     16 C16        -3.9489    1.4090   -0.3774 C.3       1 <0>         0.0000
     17 C17        -4.9079    0.6531   -1.3023 C.3       1 <0>         0.0000
     18 C18        -0.5447    0.2467    0.9208 C.3       1 <0>         0.0000
     19 N1         -1.6714    1.0381    0.4418 N.am      1 <0>         0.0000
     20 O1         -3.1802   -0.6622    0.6108 O.2       1 <0>         0.0000
     21 H1         -7.7402   -2.5858   -5.6778 H         1 <0>         0.0000
     22 H2          1.6762    2.6172   -4.2655 H         1 <0>         0.0000
     23 H3         -7.0722   -0.2524   -6.2349 H         1 <0>         0.0000
     24 H4         -6.7542   -3.7054   -3.6831 H         1 <0>         0.0000
     25 H5          3.1215    2.3541   -2.2541 H         1 <0>         0.0000
     26 H6         -0.4690    1.3576   -4.4124 H         1 <0>         0.0000
     27 H7         -5.4368    0.9472   -4.8084 H         1 <0>         0.0000
     28 H8         -5.1203   -2.4982   -2.2591 H         1 <0>         0.0000
     29 H9          2.4234    0.8578   -0.4073 H         1 <0>         0.0000
     30 H10        -1.1593   -0.1390   -2.5632 H         1 <0>         0.0000
     31 H11        -3.7034    0.8484   -3.0925 H         1 <0>         0.0000
     32 H12        -3.4259   -0.6382   -2.1828 H         1 <0>         0.0000
     33 H13         0.9611   -1.1373    0.2489 H         1 <0>         0.0000
     34 H14        -0.6089   -1.3424   -0.5299 H         1 <0>         0.0000
     35 H15        -3.4598    2.2307   -0.9151 H         1 <0>         0.0000
     36 H16        -4.5150    1.8628    0.4454 H         1 <0>         0.0000
     37 H17        -5.7003    1.3332   -1.6353 H         1 <0>         0.0000
     38 H18        -5.3881   -0.1488   -0.7346 H         1 <0>         0.0000
     39 H19        -0.9131   -0.4116    1.7101 H         1 <0>         0.0000
     40 H20         0.1861    0.9338    1.3583 H         1 <0>         0.0000
     41 H21        -1.4614    1.8970   -0.0494 H         1 <0>         0.0000
@<TRIPOS>BOND
     1    1    4 ar
     2    1    3 ar
     3    1   21 1
     4    2    6 ar
     5    2    5 ar
     6    2   22 1
     7    3    7 ar
     8    3   23 1
     9    4    8 ar
    10    4   24 1
    11    5    9 ar
    12    5   25 1
    13    6   10 ar
    14    6   26 1
    15    7   11 ar
    16    7   27 1
    17    8   11 ar
    18    8   28 1
    19    9   12 ar
    20    9   29 1
    21   10   12 ar
    22   10   30 1
    23   11   14 1
    24   12   15 1
    25   13   16 1
    26   13   19 am
    27   13   20 2
    28   14   17 1
    29   14   31 1
    30   14   32 1
    31   15   18 1
    32   15   33 1
    33   15   34 1
    34   16   17 1
    35   16   35 1
    36   16   36 1
    37   17   37 1
    38   17   38 1
    39   18   19 1
    40   18   39 1
    41   18   40 1
    42   19   41 1
