@<TRIPOS>MOLECULE
*****
   17    17     0     0     0
SMALL
NO_CHARGES

@<TRIPOS>ATOM
      1 C1          1.8851   -1.0363   -0.1124 C.ar      1 <0>         0.0000
      2 C2          0.8066   -0.4630    0.5610 C.ar      1 <0>         0.0000
      3 C3          2.9210   -1.6309    0.6081 C.ar      1 <0>         0.0000
      4 C4          0.7638   -0.4841    1.9551 C.ar      1 <0>         0.0000
      5 C5          2.8783   -1.6520    2.0022 C.ar      1 <0>         0.0000
      6 C6          1.7997   -1.0786    2.6757 C.ar      1 <0>         0.0000
      7 C7          3.5558   -4.1082    2.9296 C.3       1 <0>         0.0000
      8 O1          5.3989   -2.4655    1.9056 O.2       1 <0>         0.0000
      9 S1          4.2496   -2.4360    2.8701 S.o       1 <0>         0.0000
     10 Cl1         1.6854   -1.0708    4.4008 Cl        1 <0>         0.0000
     11 H1          1.9182   -1.0198   -1.1979 H         1 <0>         0.0000
     12 H2          0.0001   -0.0002   -0.0003 H         1 <0>         0.0000
     13 H3          3.7532   -2.0725    0.0656 H         1 <0>         0.0000
     14 H4         -0.0846   -0.0325    2.4632 H         1 <0>         0.0000
     15 H5          4.2588   -4.7718    3.4376 H         1 <0>         0.0000
     16 H6          3.3854   -4.4589    1.9095 H         1 <0>         0.0000
     17 H7          2.6102   -4.0814    3.4751 H         1 <0>         0.0000
@<TRIPOS>BOND
     1    1    2 ar
     2    1    3 ar
     3    1   11 1
     4    2    4 ar
     5    2   12 1
     6    3    5 ar
     7    3   13 1
     8    4    6 ar
     9    4   14 1
    10    5    6 ar
    11    5    9 1
    12    6   10 1
    13    7    9 1
    14    7   15 1
    15    7   16 1
    16    7   17 1
    17    8    9 2
