@<TRIPOS>MOLECULE
*****
   23    24     0     0     0
SMALL
NO_CHARGES

@<TRIPOS>ATOM
      1 C1          0.5386    4.2914   -0.2753 C.1       1 <0>         0.0000
      2 C2          1.1364    2.4462    1.2381 C.ar      1 <0>         0.0000
      3 C3          1.0623    1.1001    1.5923 C.ar      1 <0>         0.0000
      4 C4         -0.3122    2.0197   -0.6767 C.ar      1 <0>         0.0000
      5 C5          0.4562    2.9069    0.0953 C.ar      1 <0>         0.0000
      6 C6         -0.3962    0.6705   -0.3257 C.ar      1 <0>         0.0000
      7 C7          0.3161    0.2221    0.8072 C.ar      1 <0>         0.0000
      8 C8         -1.0832   -1.4558   -0.8214 C.2       1 <0>         0.0000
      9 C9         -0.0030   -2.0105    0.0939 C.3       1 <0>         0.0000
     10 C10         1.2903   -2.2911   -0.6765 C.3       1 <0>         0.0000
     11 N1          0.6083    5.4164   -0.5744 N.1       1 <0>         0.0000
     12 N2         -1.2325   -0.1947   -1.0462 N.2       1 <0>         0.0000
     13 N3         -1.8330   -2.3831   -1.5059 N.pl3     1 <0>         0.0000
     14 O1          0.2283   -1.0951    1.1805 O.3       1 <0>         0.0000
     15 H1          1.7205    3.1395    1.8346 H         1 <0>         0.0000
     16 H2          1.5810    0.7175    2.4662 H         1 <0>         0.0000
     17 H3         -0.8628    2.3695   -1.5440 H         1 <0>         0.0000
     18 H4         -0.3524   -2.9248    0.5824 H         1 <0>         0.0000
     19 H5          1.6594   -1.3794   -1.1546 H         1 <0>         0.0000
     20 H6          1.1132   -3.0400   -1.4538 H         1 <0>         0.0000
     21 H7          2.0554   -2.6637    0.0102 H         1 <0>         0.0000
     22 H8         -2.6214   -1.9993   -2.0171 H         1 <0>         0.0000
     23 H9         -2.0055   -3.2744   -1.0584 H         1 <0>         0.0000
@<TRIPOS>BOND
     1    1    5 1
     2    1   11 3
     3    2    3 ar
     4    2    5 ar
     5    2   15 1
     6    3    7 ar
     7    3   16 1
     8    4    5 ar
     9    4    6 ar
    10    4   17 1
    11    6    7 ar
    12    6   12 1
    13    7   14 1
    14    8    9 1
    15    8   12 2
    16    8   13 1
    17    9   10 1
    18    9   14 1
    19    9   18 1
    20   10   19 1
    21   10   20 1
    22   10   21 1
    23   13   22 1
    24   13   23 1
