@<TRIPOS>MOLECULE
*****
   25    26     0     0     0
SMALL
NO_CHARGES

@<TRIPOS>ATOM
      1 C1          1.3394    1.6383    0.5554 C.ar      1 <0>         0.0000
      2 C2          0.0439    1.9573    0.1360 C.ar      1 <0>         0.0000
      3 C3          1.5878    1.2669    1.8915 C.ar      1 <0>         0.0000
      4 C4         -0.9600    1.8825    1.1044 C.ar      1 <0>         0.0000
      5 C5         -0.5773    1.4908    2.4169 C.ar      1 <0>         0.0000
      6 C6         -2.7518    1.8982    2.2800 C.2       1 <0>         0.0000
      7 C7         -4.1740    1.9750    2.7424 C.3       1 <0>         0.0000
      8 C8         -5.2290    1.9371    6.2738 C.3       1 <0>         0.0000
      9 C9         -5.4164    1.8965    4.7723 C.3       1 <0>         0.0000
     10 N1          0.6443    1.1863    2.8450 N.ar      1 <0>         0.0000
     11 N2         -2.3277    2.1339    1.0557 N.2       1 <0>         0.0000
     12 N3         -1.7557    1.5030    3.1439 N.pl3     1 <0>         0.0000
     13 O1         -4.4550    0.7997    6.6609 O.3       1 <0>         0.0000
     14 O2         -4.1609    2.1409    4.1517 O.3       1 <0>         0.0000
     15 H1          2.1701    1.6741   -0.1433 H         1 <0>         0.0000
     16 H2         -0.1755    2.2494   -0.8874 H         1 <0>         0.0000
     17 H3          2.6008    1.0225    2.2052 H         1 <0>         0.0000
     18 H4         -4.6801    2.8063    2.2335 H         1 <0>         0.0000
     19 H5         -4.6966    1.0446    2.4701 H         1 <0>         0.0000
     20 H6         -6.2215    1.9219    6.7481 H         1 <0>         0.0000
     21 H7         -4.7257    2.8746    6.5483 H         1 <0>         0.0000
     22 H8         -6.1494    2.6613    4.4728 H         1 <0>         0.0000
     23 H9         -5.8024    0.9098    4.4763 H         1 <0>         0.0000
     24 H10        -1.8833    1.3257    4.1336 H         1 <0>         0.0000
     25 H11        -4.2660    0.8655    7.6091 H         1 <0>         0.0000
@<TRIPOS>BOND
     1    1    2 ar
     2    1    3 ar
     3    1   15 1
     4    2    4 ar
     5    2   16 1
     6    3   10 ar
     7    3   17 1
     8    4    5 ar
     9    4   11 1
    10    5   10 ar
    11    5   12 1
    12    6    7 1
    13    6   11 2
    14    6   12 1
    15    7   14 1
    16    7   18 1
    17    7   19 1
    18    8    9 1
    19    8   13 1
    20    8   20 1
    21    8   21 1
    22    9   14 1
    23    9   22 1
    24    9   23 1
    25   12   24 1
    26   13   25 1
