@<TRIPOS>MOLECULE
*****
   28    29     0     0     0
SMALL
NO_CHARGES

@<TRIPOS>ATOM
      1 C1         -3.7680    1.6561    2.6540 C.ar      1 <0>         0.0000
      2 C2         -3.9197    2.2757    3.8972 C.ar      1 <0>         0.0000
      3 C3         -2.5369    1.1021    2.2991 C.ar      1 <0>         0.0000
      4 C4         -2.8358    2.3358    4.7752 C.ar      1 <0>         0.0000
      5 C5         -1.4302    1.1492    3.1575 C.ar      1 <0>         0.0000
      6 C6         -1.6129    1.7785    4.3964 C.ar      1 <0>         0.0000
      7 C7         -0.7696   -1.6802    2.0845 C.2       1 <0>         0.0000
      8 C8         -1.6326   -3.4362    3.0931 C.3       1 <0>         0.0000
      9 C9         -1.6068   -3.7003    1.5623 C.3       1 <0>         0.0000
     10 C10         0.8419    1.6707    2.1903 C.3       1 <0>         0.0000
     11 C11        -0.0782    0.5732    2.7401 C.3       1 <0>         0.0000
     12 N1         -1.0020   -2.1211    3.2633 N.2       1 <0>         0.0000
     13 N2         -0.1790   -0.4928    1.7484 N.pl3     1 <0>         0.0000
     14 O1         -1.1150   -2.4521    0.9999 O.3       1 <0>         0.0000
     15 Cl1        -0.2781    1.8866    5.5468 Cl        1 <0>         0.0000
     16 H1         -4.6066    1.5983    1.9653 H         1 <0>         0.0000
     17 H2         -4.8736    2.7064    4.1890 H         1 <0>         0.0000
     18 H3         -2.4361    0.6038    1.3389 H         1 <0>         0.0000
     19 H4         -2.9328    2.8073    5.7482 H         1 <0>         0.0000
     20 H5         -2.6550   -3.4149    3.4891 H         1 <0>         0.0000
     21 H6         -1.0811   -4.2028    3.6478 H         1 <0>         0.0000
     22 H7         -0.9124   -4.4939    1.2718 H         1 <0>         0.0000
     23 H8         -2.5885   -3.8994    1.1266 H         1 <0>         0.0000
     24 H9          0.4152    2.1138    1.2826 H         1 <0>         0.0000
     25 H10         0.9655    2.4688    2.9251 H         1 <0>         0.0000
     26 H11         1.8257    1.2556    1.9517 H         1 <0>         0.0000
     27 H12         0.3840    0.1284    3.6232 H         1 <0>         0.0000
     28 H13        -0.2824   -0.2258    0.7777 H         1 <0>         0.0000
@<TRIPOS>BOND
     1    1    2 ar
     2    1    3 ar
     3    1   16 1
     4    2    4 ar
     5    2   17 1
     6    3    5 ar
     7    3   18 1
     8    4    6 ar
     9    4   19 1
    10    5    6 ar
    11    5   11 1
    12    6   15 1
    13    7   12 2
    14    7   13 1
    15    7   14 1
    16    8    9 1
    17    8   12 1
    18    8   20 1
    19    8   21 1
    20    9   14 1
    21    9   22 1
    22    9   23 1
    23   10   11 1
    24   10   24 1
    25   10   25 1
    26   10   26 1
    27   11   13 1
    28   11   27 1
    29   13   28 1
