@<TRIPOS>MOLECULE
*****
   36    36     0     0     0
SMALL
NO_CHARGES

@<TRIPOS>ATOM
      1 C1         -0.1328    2.0381   -1.9675 C.2       1 <0>         0.0000
      2 C2          2.1449    2.7039   -2.0774 C.2       1 <0>         0.0000
      3 C3         -2.1134    0.6302   -1.7212 C.2       1 <0>         0.0000
      4 C4          4.9203    0.6215   -6.4414 C.3       1 <0>         0.0000
      5 C5         -2.2725    3.0669   -1.4057 C.3       1 <0>         0.0000
      6 C6         -2.2540   -1.6827   -2.4234 C.3       1 <0>         0.0000
      7 C7         -1.2260   -0.0453   -3.9621 C.3       1 <0>         0.0000
      8 C8          4.5300    2.0214   -5.9547 C.3       1 <0>         0.0000
      9 C9          4.3422    2.0782   -4.4314 C.3       1 <0>         0.0000
     10 C10         3.9601    3.4785   -3.9596 C.3       1 <0>         0.0000
     11 N1          0.6979    1.0155   -1.9934 N.2       1 <0>         0.0000
     12 N2          2.0079    1.4174   -2.0556 N.2       1 <0>         0.0000
     13 N3         -1.5052    1.9266   -1.9294 N.am      1 <0>         0.0000
     14 N4         -1.8748   -0.2977   -2.6833 N.am      1 <0>         0.0000
     15 O1         -2.8412    0.4570   -0.7483 O.2       1 <0>         0.0000
     16 O2          3.3602    5.0351   -1.8304 O.2       1 <0>         0.0000
     17 S1          0.6490    3.6210   -1.9960 S.3       1 <0>         0.0000
     18 S2          3.7271    3.5916   -2.1253 S.o       1 <0>         0.0000
     19 H1          4.1551   -0.1162   -6.1753 H         1 <0>         0.0000
     20 H2          5.0430    0.6003   -7.5292 H         1 <0>         0.0000
     21 H3          5.8650    0.2961   -5.9917 H         1 <0>         0.0000
     22 H4         -2.1099    3.9380   -2.0472 H         1 <0>         0.0000
     23 H5         -1.9889    3.3083   -0.3763 H         1 <0>         0.0000
     24 H6         -3.3288    2.8068   -1.4223 H         1 <0>         0.0000
     25 H7         -3.0340   -2.0044   -3.1238 H         1 <0>         0.0000
     26 H8         -2.6329   -1.7674   -1.4069 H         1 <0>         0.0000
     27 H9         -1.3791   -2.3314   -2.5457 H         1 <0>         0.0000
     28 H10        -0.1897   -0.3980   -3.9547 H         1 <0>         0.0000
     29 H11        -1.2359    1.0198   -4.1910 H         1 <0>         0.0000
     30 H12        -1.7833   -0.5712   -4.7448 H         1 <0>         0.0000
     31 H13         5.2979    2.7447   -6.2571 H         1 <0>         0.0000
     32 H14         3.6001    2.3358   -6.4457 H         1 <0>         0.0000
     33 H15         3.5726    1.3600   -4.1303 H         1 <0>         0.0000
     34 H16         5.2702    1.7652   -3.9371 H         1 <0>         0.0000
     35 H17         4.7542    4.2087   -4.1497 H         1 <0>         0.0000
     36 H18         3.0365    3.8500   -4.4145 H         1 <0>         0.0000
@<TRIPOS>BOND
     1    1   11 2
     2    1   13 1
     3    1   17 1
     4    2   12 2
     5    2   17 1
     6    2   18 1
     7    3   13 am
     8    3   14 am
     9    3   15 2
    10    4    8 1
    11    4   19 1
    12    4   20 1
    13    4   21 1
    14    5   13 1
    15    5   22 1
    16    5   23 1
    17    5   24 1
    18    6   14 1
    19    6   25 1
    20    6   26 1
    21    6   27 1
    22    7   14 1
    23    7   28 1
    24    7   29 1
    25    7   30 1
    26    8    9 1
    27    8   31 1
    28    8   32 1
    29    9   10 1
    30    9   33 1
    31    9   34 1
    32   10   18 1
    33   10   35 1
    34   10   36 1
    35   11   12 1
    36   16   18 2
