@<TRIPOS>MOLECULE
*****
   29    30     0     0     0
SMALL
NO_CHARGES

@<TRIPOS>ATOM
      1 C1         -0.2569   -2.0006    1.1358 C.ar      1 <0>         0.0000
      2 C2          3.3399   -4.2829   -1.6010 C.ar      1 <0>         0.0000
      3 C3          0.0032   -3.3220    0.8408 C.ar      1 <0>         0.0000
      4 C4          3.0847   -2.9644   -1.3013 C.ar      1 <0>         0.0000
      5 C5          0.5754   -0.9676    0.6411 C.ar      1 <0>         0.0000
      6 C6          2.5120   -5.3213   -1.1032 C.ar      1 <0>         0.0000
      7 C7          1.9706   -2.6311   -0.4838 C.ar      1 <0>         0.0000
      8 C8          1.1195   -3.6583    0.0286 C.ar      1 <0>         0.0000
      9 C9          1.6636   -1.2776   -0.1514 C.ar      1 <0>         0.0000
     10 C10         1.4291   -5.0151   -0.3033 C.ar      1 <0>         0.0000
     11 C11         0.5407   -7.7451   -1.4035 C.2       1 <0>         0.0000
     12 C12        -0.0871   -8.0828    0.9985 C.3       1 <0>         0.0000
     13 C13         0.8351   -7.3163    0.0484 C.3       1 <0>         0.0000
     14 O1         -0.2453   -7.1948   -2.1286 O.2       1 <0>         0.0000
     15 O2          2.5069   -0.3195   -0.6623 O.3       1 <0>         0.0000
     16 O3          1.2070   -8.8681   -1.8123 O.3       1 <0>         0.0000
     17 O4          0.5749   -5.9437    0.2465 O.3       1 <0>         0.0000
     18 H1         -1.1113   -1.7379    1.7537 H         1 <0>         0.0000
     19 H2          4.1836   -4.5458   -2.2332 H         1 <0>         0.0000
     20 H3         -0.6379   -4.1118    1.2137 H         1 <0>         0.0000
     21 H4          3.7173   -2.1713   -1.6833 H         1 <0>         0.0000
     22 H5          0.3542    0.0705    0.8846 H         1 <0>         0.0000
     23 H6          2.7432   -6.3430   -1.3825 H         1 <0>         0.0000
     24 H7         -1.1290   -7.8474    0.7684 H         1 <0>         0.0000
     25 H8          0.1252   -7.7886    2.0292 H         1 <0>         0.0000
     26 H9          0.0581   -9.1630    0.9024 H         1 <0>         0.0000
     27 H10         1.8864   -7.5319    0.2938 H         1 <0>         0.0000
     28 H11         2.1929    0.5545   -0.3808 H         1 <0>         0.0000
     29 H12         1.8207   -9.1681   -1.1199 H         1 <0>         0.0000
@<TRIPOS>BOND
     1    1    3 ar
     2    1    5 ar
     3    1   18 1
     4    2    4 ar
     5    2    6 ar
     6    2   19 1
     7    3    8 ar
     8    3   20 1
     9    4    7 ar
    10    4   21 1
    11    5    9 ar
    12    5   22 1
    13    6   10 ar
    14    6   23 1
    15    7    8 ar
    16    7    9 ar
    17    8   10 ar
    18    9   15 1
    19   10   17 1
    20   11   13 1
    21   11   14 2
    22   11   16 1
    23   12   13 1
    24   12   24 1
    25   12   25 1
    26   12   26 1
    27   13   17 1
    28   13   27 1
    29   15   28 1
    30   16   29 1
