@<TRIPOS>MOLECULE
*****
   29    30     0     0     0
SMALL
NO_CHARGES

@<TRIPOS>ATOM
      1 C1          2.4853   -6.5589    1.8733 C.ar      1 <0>         0.0000
      2 C2          2.2310   -5.5708    0.9156 C.ar      1 <0>         0.0000
      3 C3          1.4755   -6.9476    2.7579 C.ar      1 <0>         0.0000
      4 C4          0.9693   -4.9767    0.8403 C.ar      1 <0>         0.0000
      5 C5          0.2156   -6.3453    2.6899 C.ar      1 <0>         0.0000
      6 C6         -0.0466   -5.3601    1.7304 C.ar      1 <0>         0.0000
      7 C7         -2.2227   -2.5142    2.5675 C.cat     1 <0>         0.0000
      8 C8         -4.2291   -1.7524    3.4282 C.3       1 <0>         0.0000
      9 C9         -3.1993   -0.6117    3.3309 C.3       1 <0>         0.0000
     10 C10        -2.0788   -4.7867    0.2895 C.3       1 <0>         0.0000
     11 C11        -1.4129   -4.7072    1.6689 C.3       1 <0>         0.0000
     12 N1         -3.5216   -2.8112    2.6850 N.pl3     1 <0>         0.0000
     13 N2         -1.2617   -3.2828    2.1042 N.pl3     1 <0>         0.0000
     14 O1         -1.9383   -1.2900    2.9855 O.3       1 <0>         0.0000
     15 H1          3.4648   -7.0251    1.9263 H         1 <0>         0.0000
     16 H2          3.0115   -5.2703    0.2225 H         1 <0>         0.0000
     17 H3          1.6673   -7.7163    3.5007 H         1 <0>         0.0000
     18 H4          0.7832   -4.2255    0.0754 H         1 <0>         0.0000
     19 H5         -0.5644   -6.6503    3.3842 H         1 <0>         0.0000
     20 H6         -4.4177   -2.0656    4.4587 H         1 <0>         0.0000
     21 H7         -5.1727   -1.5008    2.9425 H         1 <0>         0.0000
     22 H8         -3.4132    0.0902    2.5238 H         1 <0>         0.0000
     23 H9         -3.0305   -0.0809    4.2655 H         1 <0>         0.0000
     24 H10        -1.4664   -4.3000   -0.4726 H         1 <0>         0.0000
     25 H11        -2.2000   -5.8362    0.0107 H         1 <0>         0.0000
     26 H12        -3.0657   -4.3126    0.2819 H         1 <0>         0.0000
     27 H13        -2.0519   -5.1918    2.4150 H         1 <0>         0.0000
     28 H14        -3.8984   -3.7380    2.5309 H         1 <0>         0.0000
     29 H15        -0.3284   -2.8798    2.0941 H         1 <0>         0.0000
@<TRIPOS>BOND
     1    1    3 ar
     2    1    2 ar
     3    1   15 1
     4    2    4 ar
     5    2   16 1
     6    3    5 ar
     7    3   17 1
     8    4    6 ar
     9    4   18 1
    10    5    6 ar
    11    5   19 1
    12    6   11 1
    13    7   12 2
    14    7   13 1
    15    7   14 1
    16    8    9 1
    17    8   12 1
    18    8   20 1
    19    8   21 1
    20    9   14 1
    21    9   22 1
    22    9   23 1
    23   10   11 1
    24   10   24 1
    25   10   25 1
    26   10   26 1
    27   11   13 1
    28   11   27 1
    29   12   28 1
    30   13   29 1
