@<TRIPOS>MOLECULE
*****
   27    28     0     0     0
SMALL
NO_CHARGES

@<TRIPOS>ATOM
      1 C1         -1.4901   -1.1803   -0.1164 C.1       1 <0>         0.0000
      2 C2          3.1271   -0.7062    0.8352 C.ar      1 <0>         0.0000
      3 C3          2.0159    0.0170    1.2663 C.ar      1 <0>         0.0000
      4 C4          3.1876   -2.0933    1.0022 C.ar      1 <0>         0.0000
      5 C5          1.0141   -2.0365    2.0872 C.ar      1 <0>         0.0000
      6 C6         -0.8109   -0.1447   -0.8102 C.2       1 <0>         0.0000
      7 C7          0.9464   -0.6469    1.8941 C.ar      1 <0>         0.0000
      8 C8          2.1229   -2.7441    1.6289 C.ar      1 <0>         0.0000
      9 C9         -0.4100    1.0862   -0.3404 C.2       1 <0>         0.0000
     10 C10         0.0861    0.8877   -2.4652 C.2       1 <0>         0.0000
     11 C11        -0.2397    0.0565    2.4283 C.2       1 <0>         0.0000
     12 C12         0.6188    1.3698   -3.7661 C.3       1 <0>         0.0000
     13 N1         -2.0455   -2.0219    0.4695 N.1       1 <0>         0.0000
     14 N2         -0.4668   -0.2407   -2.1691 N.2       1 <0>         0.0000
     15 N3         -0.8523    1.1228    2.0434 N.2       1 <0>         0.0000
     16 N4         -0.4005    1.7570    0.8688 N.pl3     1 <0>         0.0000
     17 O1          0.1667    1.7562   -1.3827 O.3       1 <0>         0.0000
     18 Cl1         2.1851   -4.4832    1.8476 Cl        1 <0>         0.0000
     19 H1          3.9566   -0.1903    0.3595 H         1 <0>         0.0000
     20 H2          1.9828    1.0918    1.1322 H         1 <0>         0.0000
     21 H3          4.0454   -2.6610    0.6559 H         1 <0>         0.0000
     22 H4          0.1910   -2.5626    2.5605 H         1 <0>         0.0000
     23 H5         -0.6952   -0.3883    3.3127 H         1 <0>         0.0000
     24 H6          0.0924    2.2723   -4.0929 H         1 <0>         0.0000
     25 H7          1.6838    1.6106   -3.6887 H         1 <0>         0.0000
     26 H8          0.4814    0.5856   -4.5111 H         1 <0>         0.0000
     27 H9         -0.8286    2.6768    0.8067 H         1 <0>         0.0000
@<TRIPOS>BOND
     1    1    6 1
     2    1   13 3
     3    2    3 ar
     4    2    4 ar
     5    2   19 1
     6    3    7 ar
     7    3   20 1
     8    4    8 ar
     9    4   21 1
    10    5    7 ar
    11    5    8 ar
    12    5   22 1
    13    6    9 2
    14    6   14 1
    15    7   11 1
    16    8   18 1
    17    9   16 1
    18    9   17 1
    19   10   12 1
    20   10   14 2
    21   10   17 1
    22   11   15 2
    23   11   23 1
    24   12   24 1
    25   12   25 1
    26   12   26 1
    27   15   16 1
    28   16   27 1
