@<TRIPOS>MOLECULE
*****
   35    37     0     0     0
SMALL
NO_CHARGES

@<TRIPOS>ATOM
      1 C1          5.0846  -10.7100   -1.0718 C.1       1 <0>         0.0000
      2 C2          3.4218   -8.8964   -1.0255 C.ar      1 <0>         0.0000
      3 C3          5.7734   -8.3839   -0.6474 C.ar      1 <0>         0.0000
      4 C4          3.1081   -7.5505   -0.8518 C.ar      1 <0>         0.0000
      5 C5          5.4510   -7.0380   -0.4989 C.ar      1 <0>         0.0000
      6 C6          1.1146   -0.8419    0.1671 C.ar      1 <0>         0.0000
      7 C7          1.1052   -1.5804    1.3454 C.ar      1 <0>         0.0000
      8 C8          2.2320   -2.6482   -0.9625 C.ar      1 <0>         0.0000
      9 C9          4.7573   -9.3201   -0.9112 C.ar      1 <0>         0.0000
     10 C10         4.1170   -6.6149   -0.5789 C.ar      1 <0>         0.0000
     11 C11         1.6834   -1.3664   -1.0062 C.ar      1 <0>         0.0000
     12 C12         2.2413   -3.4070    0.2196 C.ar      1 <0>         0.0000
     13 C13         1.6695   -2.8591    1.3827 C.ar      1 <0>         0.0000
     14 C14         3.8325   -5.1387   -0.4981 C.2       1 <0>         0.0000
     15 C15         2.2288   -5.5425    1.3769 C.3       1 <0>         0.0000
     16 C16         2.3731   -4.7236    2.6533 C.3       1 <0>         0.0000
     17 C17         1.7231   -0.5515   -2.2790 C.3       1 <0>         0.0000
     18 N1          5.3485  -11.8381   -1.1977 N.1       1 <0>         0.0000
     19 N2          2.7311   -4.7501    0.2486 N.am      1 <0>         0.0000
     20 O1          4.5412   -4.3548   -1.1241 O.2       1 <0>         0.0000
     21 O2          1.5933   -3.5321    2.5823 O.3       1 <0>         0.0000
     22 H1          2.6446   -9.6205   -1.2495 H         1 <0>         0.0000
     23 H2          6.8039   -8.7169   -0.5714 H         1 <0>         0.0000
     24 H3          2.0769   -7.2224   -0.9467 H         1 <0>         0.0000
     25 H4          6.2288   -6.2999   -0.3293 H         1 <0>         0.0000
     26 H5          0.6756    0.1531    0.1576 H         1 <0>         0.0000
     27 H6          0.6659   -1.1878    2.2579 H         1 <0>         0.0000
     28 H7          2.6754   -3.0704   -1.8559 H         1 <0>         0.0000
     29 H8          2.8003   -6.4636    1.4723 H         1 <0>         0.0000
     30 H9          1.1749   -5.7979    1.2174 H         1 <0>         0.0000
     31 H10         2.0019   -5.2787    3.5178 H         1 <0>         0.0000
     32 H11         3.4287   -4.4678    2.8152 H         1 <0>         0.0000
     33 H12         2.5539    0.1641   -2.2617 H         1 <0>         0.0000
     34 H13         1.8577   -1.1884   -3.1577 H         1 <0>         0.0000
     35 H14         0.8002    0.0216   -2.4141 H         1 <0>         0.0000
@<TRIPOS>BOND
     1    1    9 1
     2    1   18 3
     3    2    4 ar
     4    2    9 ar
     5    2   22 1
     6    3    5 ar
     7    3    9 ar
     8    3   23 1
     9    4   10 ar
    10    4   24 1
    11    5   10 ar
    12    5   25 1
    13    6    7 ar
    14    6   11 ar
    15    6   26 1
    16    7   13 ar
    17    7   27 1
    18    8   11 ar
    19    8   12 ar
    20    8   28 1
    21   10   14 1
    22   11   17 1
    23   12   13 ar
    24   12   19 1
    25   13   21 1
    26   14   19 am
    27   14   20 2
    28   15   16 1
    29   15   19 1
    30   15   29 1
    31   15   30 1
    32   16   21 1
    33   16   31 1
    34   16   32 1
    35   17   33 1
    36   17   34 1
    37   17   35 1
