@<TRIPOS>MOLECULE
*****
   22    23     0     0     0
SMALL
NO_CHARGES

@<TRIPOS>ATOM
      1 C1          1.5856   -1.2228   -0.0527 C.ar      1 <0>         0.0000
      2 C2          0.4843   -0.5690    0.5020 C.ar      1 <0>         0.0000
      3 C3          2.6388   -1.6421    0.7609 C.ar      1 <0>         0.0000
      4 C4          1.4735   -0.7415    2.7112 C.ar      1 <0>         0.0000
      5 C5          0.4204   -0.3234    1.8840 C.ar      1 <0>         0.0000
      6 C6          2.5577   -1.3906    2.1314 C.ar      1 <0>         0.0000
      7 C7         -0.7182    0.3605    2.5018 C.2       1 <0>         0.0000
      8 C8         -2.0554    1.2427    3.8530 C.2       1 <0>         0.0000
      9 N1         -0.8681    0.6023    3.8012 N.2       1 <0>         0.0000
     10 N2         -2.6782    1.4321    2.6985 N.2       1 <0>         0.0000
     11 N3         -1.8066    0.8595    1.8408 N.pl3     1 <0>         0.0000
     12 N4          3.6690   -1.8315    3.0024 N.pl3     1 <0>         0.0000
     13 N5         -2.6422    1.7130    5.1107 N.pl3     1 <0>         0.0000
     14 O1          4.6178   -2.4084    2.4625 O.3       1 <0>         0.0000
     15 O2         -1.9918    1.5034    6.1336 O.3       1 <0>         0.0000
     16 O3          3.5779   -1.5947    4.2086 O.2       1 <0>         0.0000
     17 O4         -3.7341    2.2781    5.0394 O.2       1 <0>         0.0000
     18 H1          1.6232   -1.4071   -1.1219 H         1 <0>         0.0000
     19 H2         -0.3221   -0.2574   -0.1568 H         1 <0>         0.0000
     20 H3          3.5057   -2.1520    0.3576 H         1 <0>         0.0000
     21 H4          1.4412   -0.5616    3.7794 H         1 <0>         0.0000
     22 H5         -2.0249    0.8601    0.8514 H         1 <0>         0.0000
@<TRIPOS>BOND
     1    1    2 ar
     2    1    3 ar
     3    1   18 1
     4    2    5 ar
     5    2   19 1
     6    3    6 ar
     7    3   20 1
     8    4    5 ar
     9    4    6 ar
    10    4   21 1
    11    5    7 1
    12    6   12 1
    13    7    9 2
    14    7   11 1
    15    8    9 1
    16    8   10 2
    17    8   13 1
    18   10   11 1
    19   11   22 1
    20   12   14 1
    21   12   16 2
    22   13   15 1
    23   13   17 2
