@<TRIPOS>MOLECULE
*****
   27    28     0     0     0
SMALL
NO_CHARGES

@<TRIPOS>ATOM
      1 C1          1.3016    2.6502    3.3008 C.1       1 <0>         0.0000
      2 C2          3.1390   -0.8955    2.1318 C.ar      1 <0>         0.0000
      3 C3          1.8937   -0.6416    2.7099 C.ar      1 <0>         0.0000
      4 C4          3.3088   -0.8175    0.7474 C.ar      1 <0>         0.0000
      5 C5          0.9555   -0.2408    0.5091 C.ar      1 <0>         0.0000
      6 C6          1.1965    2.8058    1.8919 C.2       1 <0>         0.0000
      7 C7          0.8007   -0.2875    1.9055 C.ar      1 <0>         0.0000
      8 C8          2.2047   -0.4968   -0.0467 C.ar      1 <0>         0.0000
      9 C9          0.1223    2.4896    1.0963 C.2       1 <0>         0.0000
     10 C10         1.7747    3.2552   -0.1193 C.2       1 <0>         0.0000
     11 C11        -0.4918    0.0335    2.5535 C.2       1 <0>         0.0000
     12 C12         2.4351    3.6533   -1.3890 C.3       1 <0>         0.0000
     13 N1          1.3650    2.4946    4.4542 N.1       1 <0>         0.0000
     14 N2          2.2425    3.2759    1.0903 N.2       1 <0>         0.0000
     15 N3         -1.3525    0.9586    2.3012 N.2       1 <0>         0.0000
     16 N4         -1.1131    1.8826    1.2802 N.pl3     1 <0>         0.0000
     17 O1          0.4818    2.7806   -0.1960 O.3       1 <0>         0.0000
     18 Cl1         2.4012   -0.3858   -1.7915 Cl        1 <0>         0.0000
     19 H1          3.9887   -1.1435    2.7614 H         1 <0>         0.0000
     20 H2          1.7771   -0.6728    3.7893 H         1 <0>         0.0000
     21 H3          4.2762   -1.0000    0.2909 H         1 <0>         0.0000
     22 H4          0.1166    0.0055   -0.1317 H         1 <0>         0.0000
     23 H5         -0.7827   -0.5951    3.3946 H         1 <0>         0.0000
     24 H6          2.5173    2.7928   -2.0605 H         1 <0>         0.0000
     25 H7          1.8603    4.4315   -1.9008 H         1 <0>         0.0000
     26 H8          3.4326    4.0308   -1.1629 H         1 <0>         0.0000
     27 H9         -1.9071    2.5104    1.2095 H         1 <0>         0.0000
@<TRIPOS>BOND
     1    1    6 1
     2    1   13 3
     3    2    3 ar
     4    2    4 ar
     5    2   19 1
     6    3    7 ar
     7    3   20 1
     8    4    8 ar
     9    4   21 1
    10    5    7 ar
    11    5    8 ar
    12    5   22 1
    13    6    9 2
    14    6   14 1
    15    7   11 1
    16    8   18 1
    17    9   16 1
    18    9   17 1
    19   10   12 1
    20   10   14 2
    21   10   17 1
    22   11   15 2
    23   11   23 1
    24   12   24 1
    25   12   25 1
    26   12   26 1
    27   15   16 1
    28   16   27 1
