@<TRIPOS>MOLECULE
*****
   30    31     0     0     0
SMALL
NO_CHARGES

@<TRIPOS>ATOM
      1 C1         -3.8494   -3.6076   -0.5983 C.ar      1 <0>         0.0000
      2 C2         -3.3399   -2.3287   -0.3774 C.ar      1 <0>         0.0000
      3 C3         -3.0968   -4.5790   -1.2654 C.ar      1 <0>         0.0000
      4 C4         -1.2733   -2.9647   -1.5040 C.ar      1 <0>         0.0000
      5 C5          3.0210    3.1596   -1.2600 C.2       1 <0>         0.0000
      6 C6          1.3845    1.3253   -1.1801 C.2       1 <0>         0.0000
      7 C7         -2.0489   -2.0039   -0.8304 C.ar      1 <0>         0.0000
      8 C8          1.7497    2.6277   -0.8869 C.2       1 <0>         0.0000
      9 C9         -1.8166   -4.2300   -1.7053 C.ar      1 <0>         0.0000
     10 C10         3.8978    2.3597   -1.9238 C.2       1 <0>         0.0000
     11 C11         2.3337    0.4772   -1.8920 C.2       1 <0>         0.0000
     12 C12         0.0773    0.8293   -0.7792 C.2       1 <0>         0.0000
     13 C13         5.2639    2.7503   -2.3881 C.3       1 <0>         0.0000
     14 N1         -0.3233   -0.3747   -1.0208 N.2       1 <0>         0.0000
     15 N2         -1.5521   -0.7224   -0.6030 N.pl3     1 <0>         0.0000
     16 O1          2.2069   -0.6724   -2.2360 O.2       1 <0>         0.0000
     17 O2          3.5836    1.0881   -2.2287 O.3       1 <0>         0.0000
     18 O3          0.8577    3.4171   -0.2201 O.3       1 <0>         0.0000
     19 Cl1        -0.8514   -5.4360   -2.5472 Cl        1 <0>         0.0000
     20 H1         -4.8476   -3.8536   -0.2463 H         1 <0>         0.0000
     21 H2         -3.9381   -1.5840    0.1435 H         1 <0>         0.0000
     22 H3         -3.4880   -5.5753   -1.4400 H         1 <0>         0.0000
     23 H4         -0.2792   -2.7085   -1.8508 H         1 <0>         0.0000
     24 H5          3.2946    4.1830   -1.0234 H         1 <0>         0.0000
     25 H6         -0.5624    1.5453   -0.2509 H         1 <0>         0.0000
     26 H7          6.0164    2.0947   -1.9377 H         1 <0>         0.0000
     27 H8          5.4862    3.7855   -2.1219 H         1 <0>         0.0000
     28 H9          5.3393    2.6357   -3.4745 H         1 <0>         0.0000
     29 H10        -2.1402   -0.0487   -0.1124 H         1 <0>         0.0000
     30 H11         1.2423    4.2974   -0.0833 H         1 <0>         0.0000
@<TRIPOS>BOND
     1    1    2 ar
     2    1    3 ar
     3    1   20 1
     4    2    7 ar
     5    2   21 1
     6    3    9 ar
     7    3   22 1
     8    4    7 ar
     9    4    9 ar
    10    4   23 1
    11    5    8 1
    12    5   10 2
    13    5   24 1
    14    6    8 2
    15    6   11 1
    16    6   12 1
    17    7   15 1
    18    8   18 1
    19    9   19 1
    20   10   13 1
    21   10   17 1
    22   11   16 2
    23   11   17 1
    24   12   14 2
    25   12   25 1
    26   13   26 1
    27   13   27 1
    28   13   28 1
    29   14   15 1
    30   15   29 1
    31   18   30 1
