@<TRIPOS>MOLECULE
*****
   29    30     0     0     0
SMALL
NO_CHARGES

@<TRIPOS>ATOM
      1 C1          2.9300   -2.0035    2.0608 C.1       1 <0>         0.0000
      2 C2         -5.6176    1.1893    1.6275 C.2       1 <0>         0.0000
      3 C3          1.9190   -2.3636    2.9832 C.2       1 <0>         0.0000
      4 C4         -3.3172    0.3629    1.7058 C.2       1 <0>         0.0000
      5 C5         -4.1654   -0.1010    2.7076 C.2       1 <0>         0.0000
      6 C6          0.6138   -1.9120    2.9639 C.2       1 <0>         0.0000
      7 C7          0.9068   -3.2779    4.6377 C.2       1 <0>         0.0000
      8 C8         -1.9071    0.0620    1.4763 C.2       1 <0>         0.0000
      9 C9         -3.8099   -1.0461    3.8163 C.3       1 <0>         0.0000
     10 C10         0.4520   -4.0312    5.8342 C.3       1 <0>         0.0000
     11 C11        -1.1565    0.6863    0.3200 C.3       1 <0>         0.0000
     12 N1          3.6998   -1.6511    1.2553 N.1       1 <0>         0.0000
     13 N2         -5.4549    0.3809    2.6387 N.2       1 <0>         0.0000
     14 N3          2.0655   -3.2371    4.0716 N.2       1 <0>         0.0000
     15 N4         -1.3447   -0.7604    2.3111 N.2       1 <0>         0.0000
     16 N5         -0.0307   -1.0590    2.1221 N.pl3     1 <0>         0.0000
     17 O1         -0.0478   -2.4750    3.9996 O.3       1 <0>         0.0000
     18 S1         -4.2060    1.4452    0.6524 S.3       1 <0>         0.0000
     19 H1         -6.5544    1.6810    1.3877 H         1 <0>         0.0000
     20 H2         -2.9918   -0.6512    4.4258 H         1 <0>         0.0000
     21 H3         -4.6910   -1.2070    4.4403 H         1 <0>         0.0000
     22 H4         -3.4566   -2.0034    3.4219 H         1 <0>         0.0000
     23 H5          0.0945   -3.3499    6.6130 H         1 <0>         0.0000
     24 H6         -0.3679   -4.7109    5.5803 H         1 <0>         0.0000
     25 H7          1.2909   -4.6101    6.2216 H         1 <0>         0.0000
     26 H8         -0.3067    1.2789    0.6813 H         1 <0>         0.0000
     27 H9         -0.7676   -0.0861   -0.3551 H         1 <0>         0.0000
     28 H10        -1.7795    1.3507   -0.2774 H         1 <0>         0.0000
     29 H11         0.5209   -0.6667    1.3628 H         1 <0>         0.0000
@<TRIPOS>BOND
     1    1    3 1
     2    1   12 3
     3    2   13 2
     4    2   18 1
     5    2   19 1
     6    3    6 2
     7    3   14 1
     8    4    5 2
     9    4    8 1
    10    4   18 1
    11    5    9 1
    12    5   13 1
    13    6   16 1
    14    6   17 1
    15    7   10 1
    16    7   14 2
    17    7   17 1
    18    8   11 1
    19    8   15 2
    20    9   20 1
    21    9   21 1
    22    9   22 1
    23   10   23 1
    24   10   24 1
    25   10   25 1
    26   11   26 1
    27   11   27 1
    28   11   28 1
    29   15   16 1
    30   16   29 1
