@<TRIPOS>MOLECULE
*****
   19    20     0     0     0
SMALL
NO_CHARGES

@<TRIPOS>ATOM
      1 C1         -2.4737   -3.0380    2.5096 C.1       1 <0>         0.0000
      2 C2          1.6758   -0.4295    2.6020 C.ar      1 <0>         0.0000
      3 C3          0.5183   -0.7637    1.8979 C.ar      1 <0>         0.0000
      4 C4          1.9153   -1.0026    3.8516 C.ar      1 <0>         0.0000
      5 C5         -0.3778   -1.6751    2.4746 C.ar      1 <0>         0.0000
      6 C6          0.9511   -1.8972    4.3240 C.ar      1 <0>         0.0000
      7 C7         -2.4026   -1.0850    0.9123 C.3       1 <0>         0.0000
      8 C8         -1.6766   -2.2170    0.2598 C.3       1 <0>         0.0000
      9 C9         -1.6449   -2.0919    1.7902 C.3       1 <0>         0.0000
     10 N1         -3.2008   -3.7942    3.0124 N.1       1 <0>         0.0000
     11 N2         -0.1500   -2.2283    3.6769 N.ar      1 <0>         0.0000
     12 Br1         1.2253   -2.7209    6.0421 Br        1 <0>         0.0000
     13 H1          2.3893    0.2739    2.1812 H         1 <0>         0.0000
     14 H2          0.3270   -0.3210    0.9256 H         1 <0>         0.0000
     15 H3          2.8009   -0.7711    4.4320 H         1 <0>         0.0000
     16 H4         -1.9802   -0.0868    0.8637 H         1 <0>         0.0000
     17 H5         -3.4852   -1.1239    0.9602 H         1 <0>         0.0000
     18 H6         -2.2567   -3.0393   -0.1443 H         1 <0>         0.0000
     19 H7         -0.7395   -2.0208   -0.2508 H         1 <0>         0.0000
@<TRIPOS>BOND
     1    1    9 1
     2    1   10 3
     3    2    3 ar
     4    2    4 ar
     5    2   13 1
     6    3    5 ar
     7    3   14 1
     8    4    6 ar
     9    4   15 1
    10    5    9 1
    11    5   11 ar
    12    6   11 ar
    13    6   12 1
    14    7    8 1
    15    7    9 1
    16    7   16 1
    17    7   17 1
    18    8    9 1
    19    8   18 1
    20    8   19 1
