@<TRIPOS>MOLECULE
*****
   41    43     0     0     0
SMALL
NO_CHARGES

@<TRIPOS>ATOM
      1 C1          4.7129   -3.3777   -2.0317 C.ar      1 <0>         0.0000
      2 C2          4.0382   -2.7161   -3.0644 C.ar      1 <0>         0.0000
      3 C3          4.6785   -2.8487   -0.7379 C.ar      1 <0>         0.0000
      4 C4          3.3358   -1.5370   -2.8032 C.ar      1 <0>         0.0000
      5 C5          3.9706   -1.6700   -0.4802 C.ar      1 <0>         0.0000
      6 C6          3.2922   -1.0005   -1.5071 C.ar      1 <0>         0.0000
      7 C7          1.1539    0.3354   -1.8880 C.2       1 <0>         0.0000
      8 C8         -1.9994    0.4527   -1.5863 C.3       1 <0>         0.0000
      9 C9         -0.8485   -1.8682    0.3507 C.3       1 <0>         0.0000
     10 C10        -1.0597   -0.5718   -2.2289 C.3       1 <0>         0.0000
     11 C11         0.4197   -1.5909   -0.4699 C.3       1 <0>         0.0000
     12 C12        -3.0163    1.3491    0.5557 C.3       1 <0>         0.0000
     13 C13        -2.6020    0.0720   -0.2211 C.3       1 <0>         0.0000
     14 C14        -1.7224   -0.6889    0.7937 C.3       1 <0>         0.0000
     15 C15         2.5310    0.2823   -1.2326 C.3       1 <0>         0.0000
     16 N1         -1.8112    1.9351    1.1799 N.pl3     1 <0>         0.0000
     17 N2          0.2251   -0.6133   -1.5349 N.am      1 <0>         0.0000
     18 O1          0.8901    1.1949   -2.7362 O.2       1 <0>         0.0000
     19 O2          0.5335    0.8875    1.2901 O.2       1 <0>         0.0000
     20 O3         -1.1038    0.4045    3.1678 O.2       1 <0>         0.0000
     21 S1         -0.8428    0.6393    1.7469 S.o2      1 <0>         0.0000
     22 H1          5.2600   -4.2949   -2.2342 H         1 <0>         0.0000
     23 H2          4.0616   -3.1183   -4.0743 H         1 <0>         0.0000
     24 H3          5.2000   -3.3535    0.0715 H         1 <0>         0.0000
     25 H4          2.8148   -1.0266   -3.6103 H         1 <0>         0.0000
     26 H5          3.9428   -1.2676    0.5304 H         1 <0>         0.0000
     27 H6         -1.4300    1.3845   -1.5169 H         1 <0>         0.0000
     28 H7         -2.8336    0.6569   -2.2682 H         1 <0>         0.0000
     29 H8         -1.5124   -2.5480   -0.1947 H         1 <0>         0.0000
     30 H9         -0.5348   -2.4186    1.2443 H         1 <0>         0.0000
     31 H10        -1.4944   -1.5759   -2.2395 H         1 <0>         0.0000
     32 H11        -0.8738   -0.2788   -3.2633 H         1 <0>         0.0000
     33 H12         1.1922   -1.2246    0.1985 H         1 <0>         0.0000
     34 H13         0.7729   -2.5460   -0.8812 H         1 <0>         0.0000
     35 H14        -3.4669    2.0999   -0.0968 H         1 <0>         0.0000
     36 H15        -3.7325    1.1152    1.3492 H         1 <0>         0.0000
     37 H16        -3.4873   -0.5514   -0.3933 H         1 <0>         0.0000
     38 H17        -2.3992   -1.0708    1.5642 H         1 <0>         0.0000
     39 H18         2.4307    0.4525   -0.1576 H         1 <0>         0.0000
     40 H19         3.0713    1.1372   -1.6471 H         1 <0>         0.0000
     41 H20        -1.2449    2.4518    0.5064 H         1 <0>         0.0000
@<TRIPOS>BOND
     1    1    3 ar
     2    1    2 ar
     3    1   22 1
     4    2    4 ar
     5    2   23 1
     6    3    5 ar
     7    3   24 1
     8    4    6 ar
     9    4   25 1
    10    5    6 ar
    11    5   26 1
    12    6   15 1
    13    7   15 1
    14    7   17 am
    15    7   18 2
    16    8   10 1
    17    8   13 1
    18    8   27 1
    19    8   28 1
    20    9   11 1
    21    9   14 1
    22    9   29 1
    23    9   30 1
    24   10   17 1
    25   10   31 1
    26   10   32 1
    27   11   17 1
    28   11   33 1
    29   11   34 1
    30   12   13 1
    31   12   16 1
    32   12   35 1
    33   12   36 1
    34   13   14 1
    35   13   37 1
    36   14   21 1
    37   14   38 1
    38   15   39 1
    39   15   40 1
    40   16   21 1
    41   16   41 1
    42   19   21 2
    43   20   21 2
