@<TRIPOS>MOLECULE
*****
   19    20     0     0     0
SMALL
NO_CHARGES

@<TRIPOS>ATOM
      1 C1         -1.7055   -1.5613    0.1682 C.1       1 <0>         0.0000
      2 C2          2.5496   -1.2105   -0.2143 C.ar      1 <0>         0.0000
      3 C3          1.1609   -1.3328   -0.1167 C.ar      1 <0>         0.0000
      4 C4          3.2969   -0.8915    0.9190 C.ar      1 <0>         0.0000
      5 C5          0.5605   -1.1282    1.1299 C.ar      1 <0>         0.0000
      6 C6          2.5845   -0.7108    2.1088 C.ar      1 <0>         0.0000
      7 C7         -1.4343   -1.7762    2.6807 C.3       1 <0>         0.0000
      8 C8         -1.5840   -0.3238    2.3787 C.3       1 <0>         0.0000
      9 C9         -0.9199   -1.2372    1.3359 C.3       1 <0>         0.0000
     10 N1         -2.3392   -1.8228   -0.7732 N.1       1 <0>         0.0000
     11 N2          1.2771   -0.8201    2.2269 N.ar      1 <0>         0.0000
     12 Br1         3.5646   -0.2682    3.7082 Br        1 <0>         0.0000
     13 H1          3.0471   -1.3630   -1.1682 H         1 <0>         0.0000
     14 H2          0.5595   -1.5801   -0.9849 H         1 <0>         0.0000
     15 H3          4.3752   -0.7866    0.8894 H         1 <0>         0.0000
     16 H4         -0.6533   -2.0699    3.3734 H         1 <0>         0.0000
     17 H5         -2.3107   -2.4142    2.6409 H         1 <0>         0.0000
     18 H6         -2.5660    0.0616    2.1260 H         1 <0>         0.0000
     19 H7         -0.9043    0.3660    2.8669 H         1 <0>         0.0000
@<TRIPOS>BOND
     1    1    9 1
     2    1   10 3
     3    2    3 ar
     4    2    4 ar
     5    2   13 1
     6    3    5 ar
     7    3   14 1
     8    4    6 ar
     9    4   15 1
    10    5    9 1
    11    5   11 ar
    12    6   11 ar
    13    6   12 1
    14    7    8 1
    15    7    9 1
    16    7   16 1
    17    7   17 1
    18    8    9 1
    19    8   18 1
    20    8   19 1
