@<TRIPOS>MOLECULE
*****
   20    21     0     0     0
SMALL
NO_CHARGES

@<TRIPOS>ATOM
      1 C1          1.9819   -0.9632   -0.1051 C.ar      1 <0>         0.0000
      2 C2          0.8836   -0.3899    0.5326 C.ar      1 <0>         0.0000
      3 C3          2.9532   -1.6411    0.6407 C.ar      1 <0>         0.0000
      4 C4         -2.0067   -2.3821    4.6992 C.2       1 <0>         0.0000
      5 C5         -2.8499   -1.4153    5.2005 C.2       1 <0>         0.0000
      6 C6          0.7196   -0.5031    1.9229 C.ar      1 <0>         0.0000
      7 C7          2.8061   -1.7283    2.0190 C.ar      1 <0>         0.0000
      8 C8          1.7016   -1.1682    2.6610 C.ar      1 <0>         0.0000
      9 C9         -1.2579   -0.6626    3.5364 C.2       1 <0>         0.0000
     10 C10        -0.4906    0.1249    2.5437 C.2       1 <0>         0.0000
     11 N1         -1.1123   -1.9468    3.7618 N.2       1 <0>         0.0000
     12 O1         -0.8783    1.2358    2.1963 O.2       1 <0>         0.0000
     13 F1          3.7452   -2.3490    2.7636 F         1 <0>         0.0000
     14 F2          1.6452   -1.2308    4.0031 F         1 <0>         0.0000
     15 S1         -2.5284    0.1080    4.4649 S.3       1 <0>         0.0000
     16 H1          2.0902   -0.8825   -1.1823 H         1 <0>         0.0000
     17 H2          0.1294    0.1485   -0.0323 H         1 <0>         0.0000
     18 H3          3.8250   -2.0908    0.1751 H         1 <0>         0.0000
     19 H4         -2.0107   -3.4259    4.9938 H         1 <0>         0.0000
     20 H5         -3.6229   -1.5289    5.9499 H         1 <0>         0.0000
@<TRIPOS>BOND
     1    1    2 ar
     2    1    3 ar
     3    1   16 1
     4    2    6 ar
     5    2   17 1
     6    3    7 ar
     7    3   18 1
     8    4    5 2
     9    4   11 1
    10    4   19 1
    11    5   15 1
    12    5   20 1
    13    6    8 ar
    14    6   10 1
    15    7    8 ar
    16    7   13 1
    17    8   14 1
    18    9   10 1
    19    9   11 2
    20    9   15 1
    21   10   12 2
