@<TRIPOS>MOLECULE
*****
   31    34     0     0     0
SMALL
NO_CHARGES

@<TRIPOS>ATOM
      1 C1          0.4793    4.2845    1.4998 C.ar      1 <0>         0.0000
      2 C2          0.4898    5.6253    1.8295 C.ar      1 <0>         0.0000
      3 C3          2.1915   -2.7319    0.5939 C.2       1 <0>         0.0000
      4 C4          1.0701   -3.1576   -0.0678 C.2       1 <0>         0.0000
      5 C5          0.1132   -2.1089   -0.2702 C.2       1 <0>         0.0000
      6 C6         -0.6610    3.7999    0.8346 C.ar      1 <0>         0.0000
      7 C7          0.5311   -0.8992    0.2554 C.2       1 <0>         0.0000
      8 C8         -0.6306    6.4004    1.4788 C.ar      1 <0>         0.0000
      9 C9         -0.7336    2.3757    0.4548 C.2       1 <0>         0.0000
     10 C10        -0.1419    0.3695    0.2476 C.2       1 <0>         0.0000
     11 C11        -0.5290   -4.6863   -0.7926 C.3       1 <0>         0.0000
     12 C12        -1.1208   -3.5575   -1.6207 C.3       1 <0>         0.0000
     13 C13        -0.7095    7.8700    1.7969 C.3       1 <0>         0.0000
     14 N1         -1.7057    4.5774    0.5207 N.ar      1 <0>         0.0000
     15 N2         -1.6884    5.8693    0.8418 N.ar      1 <0>         0.0000
     16 N3          0.3004    1.5059    0.7339 N.2       1 <0>         0.0000
     17 N4         -1.7604    1.8299   -0.1641 N.2       1 <0>         0.0000
     18 O1         -1.3694    0.4816   -0.3061 O.3       1 <0>         0.0000
     19 O2          0.8604   -4.4368   -0.5100 O.3       1 <0>         0.0000
     20 O3         -1.0723   -2.3085   -0.9004 O.3       1 <0>         0.0000
     21 S1          2.1133   -1.0474    0.9901 S.3       1 <0>         0.0000
     22 H1          1.2998    3.6138    1.7315 H         1 <0>         0.0000
     23 H2          1.3341    6.0770    2.3444 H         1 <0>         0.0000
     24 H3          3.0518   -3.3274    0.8692 H         1 <0>         0.0000
     25 H4         -1.0788   -4.7981    0.1502 H         1 <0>         0.0000
     26 H5         -0.5618   -5.6276   -1.3444 H         1 <0>         0.0000
     27 H6         -0.5738   -3.4463   -2.5642 H         1 <0>         0.0000
     28 H7         -2.1762   -3.7378   -1.8318 H         1 <0>         0.0000
     29 H8          0.1134    8.4173    1.3240 H         1 <0>         0.0000
     30 H9         -1.6564    8.2748    1.4364 H         1 <0>         0.0000
     31 H10        -0.6390    8.0407    2.8768 H         1 <0>         0.0000
@<TRIPOS>BOND
     1    1    2 ar
     2    1    6 ar
     3    1   22 1
     4    2    8 ar
     5    2   23 1
     6    3    4 2
     7    3   21 1
     8    3   24 1
     9    4    5 1
    10    4   19 1
    11    5    7 2
    12    5   20 1
    13    6    9 1
    14    6   14 ar
    15    7   10 1
    16    7   21 1
    17    8   13 1
    18    8   15 ar
    19    9   16 1
    20    9   17 2
    21   10   16 2
    22   10   18 1
    23   11   12 1
    24   11   19 1
    25   11   25 1
    26   11   26 1
    27   12   20 1
    28   12   27 1
    29   12   28 1
    30   13   29 1
    31   13   30 1
    32   13   31 1
    33   14   15 ar
    34   17   18 1
