@<TRIPOS>MOLECULE
*****
   27    28     0     0     0
SMALL
NO_CHARGES

@<TRIPOS>ATOM
      1 C1          0.0503    3.9332   -1.4529 C.1       1 <0>         0.0000
      2 C2          2.8901   -0.2250    1.1836 C.ar      1 <0>         0.0000
      3 C3          1.6789    0.3613    1.5563 C.ar      1 <0>         0.0000
      4 C4          2.9761   -1.5986    0.9442 C.ar      1 <0>         0.0000
      5 C5          0.6147   -1.8176    1.4836 C.ar      1 <0>         0.0000
      6 C6         -1.0544    4.0480   -0.5740 C.2       1 <0>         0.0000
      7 C7          0.5225   -0.4302    1.6977 C.ar      1 <0>         0.0000
      8 C8          1.8299   -2.3822    1.1037 C.ar      1 <0>         0.0000
      9 C9         -1.3611    3.1838    0.4562 C.2       1 <0>         0.0000
     10 C10        -2.8286    4.7916    0.3705 C.2       1 <0>         0.0000
     11 C11        -0.7893    0.1168    2.1048 C.2       1 <0>         0.0000
     12 C12        -4.0496    5.5042    0.8265 C.3       1 <0>         0.0000
     13 N1          0.9860    3.7681   -2.1326 N.1       1 <0>         0.0000
     14 N2         -2.0186    5.0676   -0.5958 N.2       1 <0>         0.0000
     15 N3         -1.3562    1.2305    1.7836 N.2       1 <0>         0.0000
     16 N4         -0.7081    2.0799    0.9315 N.pl3     1 <0>         0.0000
     17 O1         -2.4779    3.6324    1.0701 O.3       1 <0>         0.0000
     18 Cl1         1.9234   -4.1111    0.8262 Cl        1 <0>         0.0000
     19 H1          3.7786    0.3915    1.0816 H         1 <0>         0.0000
     20 H2          1.6495    1.4222    1.7842 H         1 <0>         0.0000
     21 H3          3.9143   -2.0569    0.6486 H         1 <0>         0.0000
     22 H4         -0.2614   -2.4481    1.6042 H         1 <0>         0.0000
     23 H5         -1.4040   -0.5095    2.7493 H         1 <0>         0.0000
     24 H6         -4.9299    4.8577    0.7506 H         1 <0>         0.0000
     25 H7         -3.9523    5.8179    1.8708 H         1 <0>         0.0000
     26 H8         -4.1951    6.3838    0.1988 H         1 <0>         0.0000
     27 H9          0.0567    1.7393    0.3480 H         1 <0>         0.0000
@<TRIPOS>BOND
     1    1    6 1
     2    1   13 3
     3    2    3 ar
     4    2    4 ar
     5    2   19 1
     6    3    7 ar
     7    3   20 1
     8    4    8 ar
     9    4   21 1
    10    5    7 ar
    11    5    8 ar
    12    5   22 1
    13    6    9 2
    14    6   14 1
    15    7   11 1
    16    8   18 1
    17    9   16 1
    18    9   17 1
    19   10   12 1
    20   10   14 2
    21   10   17 1
    22   11   15 2
    23   11   23 1
    24   12   24 1
    25   12   25 1
    26   12   26 1
    27   15   16 1
    28   16   27 1
