@<TRIPOS>MOLECULE
*****
   31    33     0     0     0
SMALL
NO_CHARGES

@<TRIPOS>ATOM
      1 C1         -7.8468    4.2374    4.6317 C.1       1 <0>         0.0000
      2 C2         -1.7850   -1.3025    0.4345 C.ar      1 <0>         0.0000
      3 C3         -0.5592   -0.7833    0.8404 C.ar      1 <0>         0.0000
      4 C4         -1.6543    0.8627    2.2967 C.ar      1 <0>         0.0000
      5 C5         -5.0719   -0.1874    1.5031 C.2       1 <0>         0.0000
      6 C6         -8.3174    3.8913    3.3372 C.2       1 <0>         0.0000
      7 C7         -2.8992    0.3420    1.8999 C.ar      1 <0>         0.0000
      8 C8         -4.2690    0.6832    2.2331 C.2       1 <0>         0.0000
      9 C9         -2.9434   -0.7320    0.9732 C.ar      1 <0>         0.0000
     10 C10        -0.5114    0.2856    1.7597 C.ar      1 <0>         0.0000
     11 C11        -7.7871    3.0147    2.4196 C.2       1 <0>         0.0000
     12 C12        -9.6237    3.8970    1.6250 C.2       1 <0>         0.0000
     13 C13        -4.6505    1.6848    3.2200 C.2       1 <0>         0.0000
     14 C14       -10.6714    4.0963    0.5903 C.3       1 <0>         0.0000
     15 N1         -7.4957    4.5401    5.7019 N.1       1 <0>         0.0000
     16 N2         -9.4951    4.4351    2.7886 N.2       1 <0>         0.0000
     17 N3         -5.7441    2.3609    3.3335 N.2       1 <0>         0.0000
     18 N4         -4.2799   -1.0319    0.7584 N.pl3     1 <0>         0.0000
     19 N5         -6.7208    2.1492    2.3843 N.pl3     1 <0>         0.0000
     20 O1         -8.5970    2.9978    1.3247 O.3       1 <0>         0.0000
     21 Br1         1.2077    0.9673    2.2726 Br        1 <0>         0.0000
     22 H1         -1.8279   -2.1231   -0.2765 H         1 <0>         0.0000
     23 H2          0.3639   -1.1971    0.4493 H         1 <0>         0.0000
     24 H3         -1.5819    1.6921    2.9925 H         1 <0>         0.0000
     25 H4         -6.1451   -0.3189    1.5189 H         1 <0>         0.0000
     26 H5         -3.9138    1.9261    3.9839 H         1 <0>         0.0000
     27 H6        -10.2376    4.4780   -0.3399 H         1 <0>         0.0000
     28 H7        -11.1837    3.1559    0.3623 H         1 <0>         0.0000
     29 H8        -11.3982    4.8168    0.9667 H         1 <0>         0.0000
     30 H9         -4.6259   -1.7662    0.1563 H         1 <0>         0.0000
     31 H10        -6.4259    1.8637    1.4475 H         1 <0>         0.0000
@<TRIPOS>BOND
     1    1    6 1
     2    1   15 3
     3    2    3 ar
     4    2    9 ar
     5    2   22 1
     6    3   10 ar
     7    3   23 1
     8    4    7 ar
     9    4   10 ar
    10    4   24 1
    11    5    8 2
    12    5   18 1
    13    5   25 1
    14    6   11 2
    15    6   16 1
    16    7    8 1
    17    7    9 ar
    18    8   13 1
    19    9   18 1
    20   10   21 1
    21   11   19 1
    22   11   20 1
    23   12   14 1
    24   12   16 2
    25   12   20 1
    26   13   17 2
    27   13   26 1
    28   14   27 1
    29   14   28 1
    30   14   29 1
    31   17   19 1
    32   18   30 1
    33   19   31 1
