@<TRIPOS>MOLECULE
*****
   30    31     0     0     0
SMALL
NO_CHARGES

@<TRIPOS>ATOM
      1 C1         -2.8231    3.3022    3.0649 C.ar      1 <0>         0.0000
      2 C2         -2.8077    2.8612    1.7417 C.ar      1 <0>         0.0000
      3 C3         -2.1119    2.6043    4.0410 C.ar      1 <0>         0.0000
      4 C4         -2.0811    1.7222    1.3946 C.ar      1 <0>         0.0000
      5 C5         -1.3853    1.4654    3.6939 C.ar      1 <0>         0.0000
      6 C6         -1.3699    1.0243    2.3707 C.ar      1 <0>         0.0000
      7 C7         -1.3408   -1.4118    2.0629 C.3       1 <0>         0.0000
      8 C8          0.4285   -0.0040    1.0101 C.3       1 <0>         0.0000
      9 C9         -0.3414   -2.5503    2.2056 C.3       1 <0>         0.0000
     10 C10         1.4171   -1.1525    1.1555 C.3       1 <0>         0.0000
     11 C11        -0.6327    0.7373    4.7598 C.3       1 <0>         0.0000
     12 N1         -0.6462   -0.1166    2.0042 N.pl3     1 <0>         0.0000
     13 N2          0.6762   -2.4458    1.1202 N.4       1 <0>         0.0000
     14 H1         -3.3889    4.1890    3.3350 H         1 <0>         0.0000
     15 H2         -3.3615    3.4047    0.9818 H         1 <0>         0.0000
     16 H3         -2.1303    2.9563    5.0691 H         1 <0>         0.0000
     17 H4         -2.0766    1.3880    0.3602 H         1 <0>         0.0000
     18 H5         -1.9450   -1.5525    1.1570 H         1 <0>         0.0000
     19 H6         -2.0234   -1.4349    2.9215 H         1 <0>         0.0000
     20 H7          0.9684    0.9417    1.1424 H         1 <0>         0.0000
     21 H8          0.0022   -0.0020   -0.0017 H         1 <0>         0.0000
     22 H9          0.1900   -2.5188    3.1627 H         1 <0>         0.0000
     23 H10        -0.8269   -3.5246    2.0952 H         1 <0>         0.0000
     24 H11         2.1306   -1.1712    0.3265 H         1 <0>         0.0000
     25 H12         1.9660   -1.1104    2.1023 H         1 <0>         0.0000
     26 H13        -1.2679   -0.0309    5.2152 H         1 <0>         0.0000
     27 H14         0.2633    0.2541    4.3518 H         1 <0>         0.0000
     28 H15        -0.2957    1.4243    5.5457 H         1 <0>         0.0000
     29 H16         0.2229   -2.5631    0.2031 H         1 <0>         0.0000
     30 H17         1.3445   -3.2240    1.2038 H         1 <0>         0.0000
@<TRIPOS>BOND
     1    1    2 ar
     2    1    3 ar
     3    1   14 1
     4    2    4 ar
     5    2   15 1
     6    3    5 ar
     7    3   16 1
     8    4    6 ar
     9    4   17 1
    10    5    6 ar
    11    5   11 1
    12    6   12 1
    13    7    9 1
    14    7   12 1
    15    7   18 1
    16    7   19 1
    17    8   10 1
    18    8   12 1
    19    8   20 1
    20    8   21 1
    21    9   13 1
    22    9   22 1
    23    9   23 1
    24   10   13 1
    25   10   24 1
    26   10   25 1
    27   11   26 1
    28   11   27 1
    29   11   28 1
    30   13   29 1
    31   13   30 1
