@<TRIPOS>MOLECULE
*****
   36    39     0     0     0
SMALL
NO_CHARGES

@<TRIPOS>ATOM
      1 C1          6.7804   -3.6595    2.5941 C.2       1 <0>         0.0000
      2 C2          4.9305   -4.5849    2.6284 C.2       1 <0>         0.0000
      3 C3          2.4516   -3.4960    0.6870 C.2       1 <0>         0.0000
      4 C4          1.7956   -3.5686    2.8656 C.2       1 <0>         0.0000
      5 C5          0.2911   -1.7522   -1.2242 C.3       1 <0>         0.0000
      6 C6          0.8152   -0.5059   -0.5312 C.3       1 <0>         0.0000
      7 C7          7.9115   -1.6079    1.4170 C.3       1 <0>         0.0000
      8 C8          8.4348   -1.6385    2.8189 C.3       1 <0>         0.0000
      9 C9          0.1550   -2.7525   -0.0838 C.3       1 <0>         0.0000
     10 C10         1.8363   -1.0392    0.4701 C.3       1 <0>         0.0000
     11 C11         8.0511   -2.9319    2.1350 C.3       1 <0>         0.0000
     12 C12         1.3459   -2.4469    0.8277 C.3       1 <0>         0.0000
     13 C13         3.6166   -5.1414    2.1613 C.3       1 <0>         0.0000
     14 N1          5.8067   -3.9754    1.7782 N.2       1 <0>         0.0000
     15 N2          5.3150   -4.6557    3.9063 N.2       1 <0>         0.0000
     16 N3          1.0261   -2.5957    2.2263 N.am      1 <0>         0.0000
     17 N4          2.6429   -4.0969    1.9126 N.am      1 <0>         0.0000
     18 O1          3.0454   -3.7381   -0.3562 O.2       1 <0>         0.0000
     19 O2          1.7154   -3.8740    4.0484 O.2       1 <0>         0.0000
     20 O3          6.5676   -4.0295    3.8842 O.3       1 <0>         0.0000
     21 H1         -0.6589   -1.5752   -1.7362 H         1 <0>         0.0000
     22 H2          1.0180   -2.1121   -1.9617 H         1 <0>         0.0000
     23 H3          1.2573    0.2071   -1.2331 H         1 <0>         0.0000
     24 H4         -0.0000    0.0005   -0.0004 H         1 <0>         0.0000
     25 H5          6.9182   -1.2054    1.2581 H         1 <0>         0.0000
     26 H6          8.6127   -1.3915    0.6201 H         1 <0>         0.0000
     27 H7          9.4894   -1.4424    2.9693 H         1 <0>         0.0000
     28 H8          7.7940   -1.2551    3.6038 H         1 <0>         0.0000
     29 H9         -0.7920   -2.5659    0.4386 H         1 <0>         0.0000
     30 H10         0.1368   -3.7824   -0.4549 H         1 <0>         0.0000
     31 H11         2.8319   -1.0645    0.0115 H         1 <0>         0.0000
     32 H12         1.9003   -0.3749    1.3392 H         1 <0>         0.0000
     33 H13         8.8617   -3.5804    1.8187 H         1 <0>         0.0000
     34 H14         3.7459   -5.7098    1.2338 H         1 <0>         0.0000
     35 H15         3.1925   -5.8243    2.9048 H         1 <0>         0.0000
     36 H16         0.3132   -2.0479    2.6981 H         1 <0>         0.0000
@<TRIPOS>BOND
     1    1   11 1
     2    1   14 2
     3    1   20 1
     4    2   13 1
     5    2   14 1
     6    2   15 2
     7    3   12 1
     8    3   17 am
     9    3   18 2
    10    4   16 am
    11    4   17 am
    12    4   19 2
    13    5    6 1
    14    5    9 1
    15    5   21 1
    16    5   22 1
    17    6   10 1
    18    6   23 1
    19    6   24 1
    20    7    8 1
    21    7   11 1
    22    7   25 1
    23    7   26 1
    24    8   11 1
    25    8   27 1
    26    8   28 1
    27    9   12 1
    28    9   29 1
    29    9   30 1
    30   10   12 1
    31   10   31 1
    32   10   32 1
    33   11   33 1
    34   12   16 1
    35   13   17 1
    36   13   34 1
    37   13   35 1
    38   15   20 1
    39   16   36 1
