@<TRIPOS>MOLECULE
*****
   25    25     0     0     0
SMALL
NO_CHARGES

@<TRIPOS>ATOM
      1 C1         -3.6821   -2.8405   -1.8077 C.ar      1 <0>         0.0000
      2 C2         -2.5264   -2.3193   -2.3895 C.ar      1 <0>         0.0000
      3 C3         -3.7117   -3.1151   -0.4405 C.ar      1 <0>         0.0000
      4 C4         -1.4004   -2.0727   -1.6040 C.ar      1 <0>         0.0000
      5 C5         -2.5857   -2.8685    0.3450 C.ar      1 <0>         0.0000
      6 C6         -1.4300   -2.3473   -0.2368 C.ar      1 <0>         0.0000
      7 C7          0.6149   -0.9132    0.0619 C.2       1 <0>         0.0000
      8 C8          0.6573   -3.3355    0.7594 C.3       1 <0>         0.0000
      9 C9          0.8368    1.5616    0.2224 C.3       1 <0>         0.0000
     10 C10        -0.2044   -2.0785    0.6174 C.3       1 <0>         0.0000
     11 N1          0.2132    0.3092    0.5827 N.am      1 <0>         0.0000
     12 O1          1.5270   -1.0679   -0.7476 O.2       1 <0>         0.0000
     13 H1         -4.5585   -3.0338   -2.4194 H         1 <0>         0.0000
     14 H2         -2.5026   -2.1064   -3.4541 H         1 <0>         0.0000
     15 H3         -4.6111   -3.5219    0.0125 H         1 <0>         0.0000
     16 H4         -0.5044   -1.6665   -2.0660 H         1 <0>         0.0000
     17 H5         -2.6180   -3.0853    1.4095 H         1 <0>         0.0000
     18 H6          1.0239   -3.6975   -0.2077 H         1 <0>         0.0000
     19 H7          1.5284   -3.1437    1.3956 H         1 <0>         0.0000
     20 H8          0.0794   -4.1484    1.2131 H         1 <0>         0.0000
     21 H9          1.6690    1.7689    0.9112 H         1 <0>         0.0000
     22 H10         1.2200    1.4976   -0.8067 H         1 <0>         0.0000
     23 H11         0.0961    2.3722    0.2881 H         1 <0>         0.0000
     24 H12        -0.5233   -1.7923    1.6294 H         1 <0>         0.0000
     25 H13        -0.5546    0.3238    1.2477 H         1 <0>         0.0000
@<TRIPOS>BOND
     1    1    3 ar
     2    1    2 ar
     3    1   13 1
     4    2    4 ar
     5    2   14 1
     6    3    5 ar
     7    3   15 1
     8    4    6 ar
     9    4   16 1
    10    5    6 ar
    11    5   17 1
    12    6   10 1
    13    7   10 1
    14    7   11 am
    15    7   12 2
    16    8   10 1
    17    8   18 1
    18    8   19 1
    19    8   20 1
    20    9   11 1
    21    9   21 1
    22    9   22 1
    23    9   23 1
    24   10   24 1
    25   11   25 1
