@<TRIPOS>MOLECULE
*****
   13    12     0     0     0
SMALL
NO_CHARGES

@<TRIPOS>ATOM
      1 C1          0.3132   -0.7212    2.5751 C.3       1 <0>         0.0000
      2 C2          2.3857    0.4585    2.3034 C.3       1 <0>         0.0000
      3 C3          3.1231    1.5593    1.5438 C.3       1 <0>         0.0000
      4 N1          1.0302    0.2824    1.8002 N.3       1 <0>         0.0000
      5 Cl1         3.2521    1.1813   -0.1949 Cl        1 <0>         0.0000
      6 Cl2         4.7622    1.7675    2.2176 Cl        1 <0>         0.0000
      7 H1          0.2619   -0.4195    3.6245 H         1 <0>         0.0000
      8 H2          0.8252   -1.6852    2.5107 H         1 <0>         0.0000
      9 H3         -0.7042   -0.8385    2.1924 H         1 <0>         0.0000
     10 H4          2.9249   -0.4937    2.2337 H         1 <0>         0.0000
     11 H5          2.3198    0.7184    3.3661 H         1 <0>         0.0000
     12 H6          2.6087    2.5207    1.6383 H         1 <0>         0.0000
     13 H7          1.0700   -0.0122    0.8248 H         1 <0>         0.0000
@<TRIPOS>BOND
     1    1    4 1
     2    1    7 1
     3    1    8 1
     4    1    9 1
     5    2    3 1
     6    2    4 1
     7    2   10 1
     8    2   11 1
     9    3    5 1
    10    3    6 1
    11    3   12 1
    12    4   13 1
