@<TRIPOS>MOLECULE
*****
   19    19     0     0     0
SMALL
NO_CHARGES

@<TRIPOS>ATOM
      1 C1          3.5391    2.8573   -4.4863 C.2       1 <0>         0.0000
      2 C2          3.0387    1.8547   -3.6053 C.2       1 <0>         0.0000
      3 C3          3.3443    4.1265   -3.9940 C.2       1 <0>         0.0000
      4 C4          2.4728    2.3766   -2.4602 C.2       1 <0>         0.0000
      5 C5          1.9445    1.7095   -1.2395 C.2       1 <0>         0.0000
      6 C6          0.9812   -0.2377   -0.1625 C.3       1 <0>         0.0000
      7 C7          0.7138   -0.0086   -2.6027 C.3       1 <0>         0.0000
      8 N1          1.3462    0.4784   -1.3811 N.am      1 <0>         0.0000
      9 O1          2.0875    2.2445   -0.1344 O.2       1 <0>         0.0000
     10 S1          2.5804    4.1142   -2.4464 S.3       1 <0>         0.0000
     11 H1          4.0240    2.6490   -5.4345 H         1 <0>         0.0000
     12 H2          3.1209    0.7902   -3.7964 H         1 <0>         0.0000
     13 H3          3.6157    5.0670   -4.4573 H         1 <0>         0.0000
     14 H4         -0.0480   -0.0071    0.1443 H         1 <0>         0.0000
     15 H5          1.6536    0.0513    0.6438 H         1 <0>         0.0000
     16 H6          1.0618   -1.3144   -0.3437 H         1 <0>         0.0000
     17 H7          1.2132   -0.9090   -2.9828 H         1 <0>         0.0000
     18 H8          0.7253    0.7555   -3.3776 H         1 <0>         0.0000
     19 H9         -0.3321   -0.2634   -2.3921 H         1 <0>         0.0000
@<TRIPOS>BOND
     1    1    2 1
     2    1    3 2
     3    1   11 1
     4    2    4 2
     5    2   12 1
     6    3   10 1
     7    3   13 1
     8    4    5 1
     9    4   10 1
    10    5    8 am
    11    5    9 2
    12    6    8 1
    13    6   14 1
    14    6   15 1
    15    6   16 1
    16    7    8 1
    17    7   17 1
    18    7   18 1
    19    7   19 1
