@<TRIPOS>MOLECULE
*****
   20    20     0     0     0
SMALL
NO_CHARGES

@<TRIPOS>ATOM
      1 C1         -1.5760    2.5031    1.9907 C.2       1 <0>         0.0000
      2 C2         -1.0143    1.1929    2.0429 C.2       1 <0>         0.0000
      3 C3         -0.6680    3.4785    2.3280 C.2       1 <0>         0.0000
      4 C4          0.3072    1.2132    2.4234 C.2       1 <0>         0.0000
      5 C5          1.2087   -0.6758   -0.0867 C.3       1 <0>         0.0000
      6 C6          3.0954    0.7096    0.6960 C.3       1 <0>         0.0000
      7 N1          2.1163   -0.3365    1.0155 N.pl3     1 <0>         0.0000
      8 O1          2.4372    0.1220    3.4808 O.2       1 <0>         0.0000
      9 O2          0.5137   -1.3714    2.6716 O.2       1 <0>         0.0000
     10 S1          0.8827    2.8253    2.7269 S.3       1 <0>         0.0000
     11 S2          1.3778   -0.2017    2.5275 S.o2      1 <0>         0.0000
     12 H1         -2.6075    2.7124    1.7278 H         1 <0>         0.0000
     13 H2         -1.5493    0.2723    1.8381 H         1 <0>         0.0000
     14 H3         -0.8291    4.5481    2.3851 H         1 <0>         0.0000
     15 H4          0.5607   -1.4980    0.2153 H         1 <0>         0.0000
     16 H5          1.8176   -1.0047   -0.9329 H         1 <0>         0.0000
     17 H6          0.5971    0.1831   -0.4022 H         1 <0>         0.0000
     18 H7          3.7357    0.8856    1.5598 H         1 <0>         0.0000
     19 H8          2.6170    1.6519    0.3906 H         1 <0>         0.0000
     20 H9          3.7147    0.3466   -0.1286 H         1 <0>         0.0000
@<TRIPOS>BOND
     1    1    2 1
     2    1    3 2
     3    1   12 1
     4    2    4 2
     5    2   13 1
     6    3   10 1
     7    3   14 1
     8    4   10 1
     9    4   11 1
    10    5    7 1
    11    5   15 1
    12    5   16 1
    13    5   17 1
    14    6    7 1
    15    6   18 1
    16    6   19 1
    17    6   20 1
    18    7   11 1
    19    8   11 2
    20    9   11 2
