@<TRIPOS>MOLECULE
*****
   19    19     0     0     0
SMALL
NO_CHARGES

@<TRIPOS>ATOM
      1 C1         -4.5209    0.9403   -3.8270 C.2       1 <0>         0.0000
      2 C2         -3.5173    1.2833   -2.8701 C.2       1 <0>         0.0000
      3 C3         -4.5876   -0.4064   -4.0605 C.2       1 <0>         0.0000
      4 C4         -2.8368    0.1805   -2.3926 C.2       1 <0>         0.0000
      5 C5         -1.1712   -0.9408   -1.0121 C.2       1 <0>         0.0000
      6 C6         -0.0587   -0.8244    0.0169 C.3       1 <0>         0.0000
      7 C7         -1.4364    1.5466   -0.9517 C.3       1 <0>         0.0000
      8 N1         -1.7953    0.2171   -1.4433 N.am      1 <0>         0.0000
      9 O1         -1.5064   -2.0405   -1.4502 O.2       1 <0>         0.0000
     10 S1         -3.4299   -1.3000   -3.1213 S.3       1 <0>         0.0000
     11 H1         -5.1590    1.6710   -4.3132 H         1 <0>         0.0000
     12 H2         -3.3203    2.3018   -2.5599 H         1 <0>         0.0000
     13 H3         -5.2518   -0.9371   -4.7315 H         1 <0>         0.0000
     14 H4         -0.4106   -0.3820    0.9541 H         1 <0>         0.0000
     15 H5          0.7800   -0.2249   -0.3505 H         1 <0>         0.0000
     16 H6          0.2937   -1.8359    0.2165 H         1 <0>         0.0000
     17 H7         -2.2961    2.0150   -0.4610 H         1 <0>         0.0000
     18 H8         -1.1147    2.1831   -1.7825 H         1 <0>         0.0000
     19 H9         -0.6241    1.4806   -0.2348 H         1 <0>         0.0000
@<TRIPOS>BOND
     1    1    2 1
     2    1    3 2
     3    1   11 1
     4    2    4 2
     5    2   12 1
     6    3   10 1
     7    3   13 1
     8    4    8 1
     9    4   10 1
    10    5    6 1
    11    5    8 am
    12    5    9 2
    13    6   14 1
    14    6   15 1
    15    6   16 1
    16    7    8 1
    17    7   17 1
    18    7   18 1
    19    7   19 1
