@<TRIPOS>MOLECULE
*****
   22    22     0     0     0
SMALL
NO_CHARGES

@<TRIPOS>ATOM
      1 C1         -2.3040   -2.2362    4.3822 C.2       1 <0>         0.0000
      2 C2         -1.5468   -3.3822    4.4479 C.2       1 <0>         0.0000
      3 C3         -0.2460   -1.5996    4.2764 C.2       1 <0>         0.0000
      4 C4          1.5308    1.6177    3.9515 C.2       1 <0>         0.0000
      5 C5          0.9910    3.0336    3.8447 C.3       1 <0>         0.0000
      6 C6          0.9522   -3.8200    4.3556 C.3       1 <0>         0.0000
      7 C7          0.9908   -0.7575    4.1708 C.3       1 <0>         0.0000
      8 N1         -1.4835   -1.1304    4.2760 N.2       1 <0>         0.0000
      9 N2         -0.2250   -2.9645    4.3856 N.pl3     1 <0>         0.0000
     10 N3          0.5973    0.6323    4.0620 N.am      1 <0>         0.0000
     11 O1          2.7394    1.3726    3.9384 O.2       1 <0>         0.0000
     12 H1         -3.3816   -2.1426    4.4101 H         1 <0>         0.0000
     13 H2         -1.8100   -4.4268    4.5359 H         1 <0>         0.0000
     14 H3          1.4054    3.6294    4.6625 H         1 <0>         0.0000
     15 H4          1.3429    3.4733    2.9074 H         1 <0>         0.0000
     16 H5         -0.1005    3.0885    3.8784 H         1 <0>         0.0000
     17 H6          1.2949   -3.9862    3.3289 H         1 <0>         0.0000
     18 H7          1.7625   -3.3647    4.9297 H         1 <0>         0.0000
     19 H8          0.7094   -4.7828    4.8083 H         1 <0>         0.0000
     20 H9          1.6390   -0.8972    5.0465 H         1 <0>         0.0000
     21 H10         1.5922   -1.0489    3.2994 H         1 <0>         0.0000
     22 H11        -0.3994    0.8210    4.0757 H         1 <0>         0.0000
@<TRIPOS>BOND
     1    1    2 2
     2    1    8 1
     3    1   12 1
     4    2    9 1
     5    2   13 1
     6    3    7 1
     7    3    8 2
     8    3    9 1
     9    4    5 1
    10    4   10 am
    11    4   11 2
    12    5   14 1
    13    5   15 1
    14    5   16 1
    15    6    9 1
    16    6   17 1
    17    6   18 1
    18    6   19 1
    19    7   10 1
    20    7   20 1
    21    7   21 1
    22   10   22 1
