@<TRIPOS>MOLECULE
*****
   19    19     0     0     0
SMALL
NO_CHARGES

@<TRIPOS>ATOM
      1 C1         -0.8742   -3.7847    0.7086 C.2       1 <0>         0.0000
      2 C2         -1.1739   -4.2714   -0.6009 C.2       1 <0>         0.0000
      3 C3         -0.4372   -4.6243    1.6948 C.2       1 <0>         0.0000
      4 C4         -1.0096   -5.6101   -0.8488 C.2       1 <0>         0.0000
      5 C5         -0.2678   -6.0537    1.4618 C.2       1 <0>         0.0000
      6 C6         -1.2711   -6.3318   -2.1452 C.2       1 <0>         0.0000
      7 C7         -1.7050   -6.1784   -4.5535 C.3       1 <0>         0.0000
      8 N1         -0.5789   -6.4383    0.1462 N.am      1 <0>         0.0000
      9 N2         -1.5075   -5.5659   -3.2439 N.am      1 <0>         0.0000
     10 O1          0.1041   -6.8860    2.2892 O.2       1 <0>         0.0000
     11 O2         -1.2703   -7.5649   -2.1718 O.2       1 <0>         0.0000
     12 H1         -1.0024   -2.7255    0.9189 H         1 <0>         0.0000
     13 H2         -1.5541   -3.5981   -1.3599 H         1 <0>         0.0000
     14 H3         -0.2081   -4.2701    2.6942 H         1 <0>         0.0000
     15 H4         -0.7623   -6.5471   -4.9739 H         1 <0>         0.0000
     16 H5         -2.1382   -5.4373   -5.2283 H         1 <0>         0.0000
     17 H6         -2.3898   -7.0221   -4.4563 H         1 <0>         0.0000
     18 H7         -0.5113   -7.4304   -0.0816 H         1 <0>         0.0000
     19 H8         -1.3037   -4.5777   -3.2006 H         1 <0>         0.0000
@<TRIPOS>BOND
     1    1    3 2
     2    1    2 1
     3    1   12 1
     4    2    4 2
     5    2   13 1
     6    3    5 1
     7    3   14 1
     8    4    6 1
     9    4    8 1
    10    5    8 am
    11    5   10 2
    12    6    9 am
    13    6   11 2
    14    7    9 1
    15    7   15 1
    16    7   16 1
    17    7   17 1
    18    8   18 1
    19    9   19 1
