@<TRIPOS>MOLECULE
*****
   19    19     0     0     0
SMALL
NO_CHARGES

@<TRIPOS>ATOM
      1 C1         -5.3282    1.3469   -3.7358 C.2       1 <0>         0.0000
      2 C2         -4.7758    1.5505   -2.4329 C.2       1 <0>         0.0000
      3 C3         -4.3921    0.9347   -4.6503 C.2       1 <0>         0.0000
      4 C4         -3.4322    1.2799   -2.3711 C.2       1 <0>         0.0000
      5 C5         -2.4148    0.3624   -0.3356 C.2       1 <0>         0.0000
      6 C6         -3.2466   -0.8879   -0.5625 C.3       1 <0>         0.0000
      7 C7         -1.7786    2.6141   -1.1348 C.3       1 <0>         0.0000
      8 N1         -2.5766    1.3893   -1.2600 N.am      1 <0>         0.0000
      9 O1         -1.6479    0.4722    0.6164 O.2       1 <0>         0.0000
     10 S1         -2.8195    0.7790   -3.9416 S.3       1 <0>         0.0000
     11 H1         -6.3726    1.5043   -3.9841 H         1 <0>         0.0000
     12 H2         -5.3413    1.8813   -1.5676 H         1 <0>         0.0000
     13 H3         -4.5373    0.7168   -5.7009 H         1 <0>         0.0000
     14 H4         -3.1148   -1.2858   -1.5721 H         1 <0>         0.0000
     15 H5         -4.3117   -0.6750   -0.4347 H         1 <0>         0.0000
     16 H6         -2.9365   -1.6312    0.1718 H         1 <0>         0.0000
     17 H7         -2.4371    3.4877   -1.1386 H         1 <0>         0.0000
     18 H8         -1.0720    2.7001   -1.9676 H         1 <0>         0.0000
     19 H9         -1.2283    2.5660   -0.1960 H         1 <0>         0.0000
@<TRIPOS>BOND
     1    1    2 1
     2    1    3 2
     3    1   11 1
     4    2    4 2
     5    2   12 1
     6    3   10 1
     7    3   13 1
     8    4    8 1
     9    4   10 1
    10    5    6 1
    11    5    8 am
    12    5    9 2
    13    6   14 1
    14    6   15 1
    15    6   16 1
    16    7    8 1
    17    7   17 1
    18    7   18 1
    19    7   19 1
