@<TRIPOS>MOLECULE
*****
   21    21     0     0     0
SMALL
NO_CHARGES

@<TRIPOS>ATOM
      1 C1          0.3854    1.5838   -0.6614 C.2       1 <0>         0.0000
      2 C2         -0.9648    1.3831   -0.5894 C.2       1 <0>         0.0000
      3 C3          1.2984    0.5912   -0.2078 C.2       1 <0>         0.0000
      4 C4         -1.5313    0.1617   -0.0564 C.2       1 <0>         0.0000
      5 C5          0.7752   -0.5626    0.2969 C.2       1 <0>         0.0000
      6 C6          1.9176   -2.6154   -0.0158 C.2       1 <0>         0.0000
      7 C7          2.8426   -3.5631    0.6978 C.3       1 <0>         0.0000
      8 C8         -1.0724   -2.0537    0.9517 C.3       1 <0>         0.0000
      9 N1         -0.5666   -0.7935    0.3954 N.am      1 <0>         0.0000
     10 O1         -2.7360   -0.0885    0.0324 O.2       1 <0>         0.0000
     11 O2          1.4759   -2.7278   -1.1321 O.2       1 <0>         0.0000
     12 O3          1.6064   -1.5462    0.8133 O.3       1 <0>         0.0000
     13 H1          0.7750    2.5118   -1.0724 H         1 <0>         0.0000
     14 H2         -1.6791    2.1238   -0.9312 H         1 <0>         0.0000
     15 H3          2.3730    0.7155   -0.2551 H         1 <0>         0.0000
     16 H4          3.7308   -3.0299    1.0472 H         1 <0>         0.0000
     17 H5          3.1258   -4.3700    0.0232 H         1 <0>         0.0000
     18 H6          2.3388   -3.9732    1.5783 H         1 <0>         0.0000
     19 H7         -0.5470   -2.2903    1.8783 H         1 <0>         0.0000
     20 H8         -0.9416   -2.8658    0.2312 H         1 <0>         0.0000
     21 H9         -2.1345   -1.9151    1.1433 H         1 <0>         0.0000
@<TRIPOS>BOND
     1    1    2 2
     2    1    3 1
     3    1   13 1
     4    2    4 1
     5    2   14 1
     6    3    5 2
     7    3   15 1
     8    4    9 am
     9    4   10 2
    10    5    9 1
    11    5   12 1
    12    6    7 1
    13    6   11 2
    14    6   12 1
    15    7   16 1
    16    7   17 1
    17    7   18 1
    18    8    9 1
    19    8   19 1
    20    8   20 1
    21    8   21 1
