@<TRIPOS>MOLECULE
*****
   22    23     0     0     0
SMALL
NO_CHARGES

@<TRIPOS>ATOM
      1 C1          1.6288   -1.2763   -0.2418 C.ar      1 <0>         0.0000
      2 C2          2.3570   -2.2840    0.4013 C.ar      1 <0>         0.0000
      3 C3          1.1050   -0.2106    0.4984 C.ar      1 <0>         0.0000
      4 C4          2.5613   -2.2262    1.7804 C.ar      1 <0>         0.0000
      5 C5          1.3254   -0.1398    1.8749 C.ar      1 <0>         0.0000
      6 C6          3.1687    3.3465    3.7832 C.2       1 <0>         0.0000
      7 C7          3.9256    2.6363    2.9064 C.2       1 <0>         0.0000
      8 C8          2.0611   -1.1455    2.5200 C.ar      1 <0>         0.0000
      9 C9          2.7822    1.2873    4.1560 C.2       1 <0>         0.0000
     10 C10         2.2635   -1.1597    3.9999 C.2       1 <0>         0.0000
     11 N1          2.4279    2.4674    4.5750 N.2       1 <0>         0.0000
     12 N2          2.3679    0.0680    4.6615 N.am      1 <0>         0.0000
     13 O1          2.2874   -2.1957    4.6533 O.2       1 <0>         0.0000
     14 O2          3.7018    1.2945    3.1527 O.3       1 <0>         0.0000
     15 H1          1.4629   -1.3255   -1.3150 H         1 <0>         0.0000
     16 H2          2.7576   -3.1162   -0.1712 H         1 <0>         0.0000
     17 H3          0.5233    0.5628    0.0043 H         1 <0>         0.0000
     18 H4          3.1039   -3.0104    2.2993 H         1 <0>         0.0000
     19 H5          0.9034    0.6836    2.4439 H         1 <0>         0.0000
     20 H6          3.0891    4.4188    3.8986 H         1 <0>         0.0000
     21 H7          4.6108    2.8716    2.1066 H         1 <0>         0.0000
     22 H8          2.2944    0.0074    5.6721 H         1 <0>         0.0000
@<TRIPOS>BOND
     1    1    3 ar
     2    1    2 ar
     3    1   15 1
     4    2    4 ar
     5    2   16 1
     6    3    5 ar
     7    3   17 1
     8    4    8 ar
     9    4   18 1
    10    5    8 ar
    11    5   19 1
    12    6    7 2
    13    6   11 1
    14    6   20 1
    15    7   14 1
    16    7   21 1
    17    8   10 1
    18    9   11 2
    19    9   12 1
    20    9   14 1
    21   10   12 am
    22   10   13 2
    23   12   22 1
