@<TRIPOS>MOLECULE
*****
   25    26     0     0     0
SMALL
NO_CHARGES

@<TRIPOS>ATOM
      1 C1          2.1567   -1.1503   -0.2362 C.ar      1 <0>         0.0000
      2 C2          2.2966   -2.3344    0.4972 C.ar      1 <0>         0.0000
      3 C3          1.9229    0.0594    0.4273 C.ar      1 <0>         0.0000
      4 C4          2.2039   -2.3095    1.8895 C.ar      1 <0>         0.0000
      5 C5          1.8087    0.0826    1.8189 C.ar      1 <0>         0.0000
      6 C6          0.8778    0.6626    8.0472 C.2       1 <0>         0.0000
      7 C7          2.2181    0.6065    7.8373 C.2       1 <0>         0.0000
      8 C8          1.9427   -1.1039    2.5560 C.ar      1 <0>         0.0000
      9 C9          1.1719    0.0741    6.0230 C.2       1 <0>         0.0000
     10 C10         1.9209   -1.1160    4.0532 C.2       1 <0>         0.0000
     11 C11        -0.3298    0.0255    4.1410 C.3       1 <0>         0.0000
     12 N1          0.2116    0.3178    6.8709 N.2       1 <0>         0.0000
     13 N2          1.0232   -0.2208    4.6732 N.am      1 <0>         0.0000
     14 O1          2.6706   -1.8351    4.6972 O.2       1 <0>         0.0000
     15 O2          2.4221    0.2385    6.5213 O.3       1 <0>         0.0000
     16 H1          2.2374   -1.1688   -1.3200 H         1 <0>         0.0000
     17 H2          2.4859   -3.2733   -0.0162 H         1 <0>         0.0000
     18 H3          1.8332    0.9830   -0.1382 H         1 <0>         0.0000
     19 H4          2.3373   -3.2143    2.4747 H         1 <0>         0.0000
     20 H5          1.6376    1.0232    2.3349 H         1 <0>         0.0000
     21 H6          0.3405    0.9166    8.9507 H         1 <0>         0.0000
     22 H7          3.1031    0.7598    8.4355 H         1 <0>         0.0000
     23 H8         -0.5462    1.0967    4.1448 H         1 <0>         0.0000
     24 H9         -1.0695   -0.4818    4.7652 H         1 <0>         0.0000
     25 H10        -0.3909   -0.3557    3.1249 H         1 <0>         0.0000
@<TRIPOS>BOND
     1    1    3 ar
     2    1    2 ar
     3    1   16 1
     4    2    4 ar
     5    2   17 1
     6    3    5 ar
     7    3   18 1
     8    4    8 ar
     9    4   19 1
    10    5    8 ar
    11    5   20 1
    12    6    7 2
    13    6   12 1
    14    6   21 1
    15    7   15 1
    16    7   22 1
    17    8   10 1
    18    9   12 2
    19    9   13 1
    20    9   15 1
    21   10   13 am
    22   10   14 2
    23   11   13 1
    24   11   23 1
    25   11   24 1
    26   11   25 1
