@<TRIPOS>MOLECULE
*****
   22    22     0     0     0
SMALL
NO_CHARGES

@<TRIPOS>ATOM
      1 C1         -1.7220   -1.9930    4.3015 C.2       1 <0>         0.0000
      2 C2         -1.1336   -3.2206    4.5168 C.2       1 <0>         0.0000
      3 C3          0.4012   -1.6329    4.4084 C.2       1 <0>         0.0000
      4 C4          3.0371   -1.6493    2.3636 C.2       1 <0>         0.0000
      5 C5          3.3269   -1.3972    0.8947 C.3       1 <0>         0.0000
      6 C6          1.2482   -3.9924    4.8539 C.3       1 <0>         0.0000
      7 C7          1.7268   -0.9338    4.3434 C.3       1 <0>         0.0000
      8 N1         -0.7587   -1.0115    4.2350 N.2       1 <0>         0.0000
      9 N2          0.2275   -2.9851    4.5751 N.pl3     1 <0>         0.0000
     10 N3          2.2058   -0.7507    2.9708 N.am      1 <0>         0.0000
     11 O1          3.5451   -2.5983    2.9679 O.2       1 <0>         0.0000
     12 H1         -2.7748   -1.7655    4.1938 H         1 <0>         0.0000
     13 H2         -1.5432   -4.2141    4.6357 H         1 <0>         0.0000
     14 H3          4.4071   -1.2907    0.7658 H         1 <0>         0.0000
     15 H4          3.0122   -2.2733    0.3211 H         1 <0>         0.0000
     16 H5          2.8301   -0.5091    0.4948 H         1 <0>         0.0000
     17 H6          0.9162   -4.9526    4.4535 H         1 <0>         0.0000
     18 H7          2.1844   -3.7182    4.3657 H         1 <0>         0.0000
     19 H8          1.4058   -4.0948    5.9329 H         1 <0>         0.0000
     20 H9          1.6079    0.0525    4.7972 H         1 <0>         0.0000
     21 H10         2.5026   -1.4730    4.8869 H         1 <0>         0.0000
     22 H11         1.6809   -0.1078    2.3916 H         1 <0>         0.0000
@<TRIPOS>BOND
     1    1    2 2
     2    1    8 1
     3    1   12 1
     4    2    9 1
     5    2   13 1
     6    3    7 1
     7    3    8 2
     8    3    9 1
     9    4    5 1
    10    4   10 am
    11    4   11 2
    12    5   14 1
    13    5   15 1
    14    5   16 1
    15    6    9 1
    16    6   17 1
    17    6   18 1
    18    6   19 1
    19    7   10 1
    20    7   20 1
    21    7   21 1
    22   10   22 1
