@<TRIPOS>MOLECULE
*****
   24    24     0     0     0
SMALL
NO_CHARGES

@<TRIPOS>ATOM
      1 C1         -1.9993    4.0678    1.8600 C.ar      1 <0>         0.0000
      2 C2         -2.0545    3.5379    3.1522 C.ar      1 <0>         0.0000
      3 C3         -1.1584    3.5025    0.9006 C.ar      1 <0>         0.0000
      4 C4         -1.2555    2.4406    3.4759 C.ar      1 <0>         0.0000
      5 C5         -0.3577    2.3971    1.2195 C.ar      1 <0>         0.0000
      6 C6         -0.4093    1.8661    2.5213 C.ar      1 <0>         0.0000
      7 C7         -1.4644   -1.2099    2.7655 C.3       1 <0>         0.0000
      8 C8          0.1901   -1.1809    0.9281 C.3       1 <0>         0.0000
      9 N1         -0.0915   -0.9171    2.3435 N.pl3     1 <0>         0.0000
     10 O1          1.9435    0.5869    2.4935 O.2       1 <0>         0.0000
     11 O2          0.3684    0.3257    4.4819 O.2       1 <0>         0.0000
     12 O3          0.4611    1.8139    0.2955 O.3       1 <0>         0.0000
     13 S1          0.5969    0.4524    3.0404 S.o2      1 <0>         0.0000
     14 H1         -2.6112    4.9251    1.5928 H         1 <0>         0.0000
     15 H2         -2.7044    3.9777    3.9024 H         1 <0>         0.0000
     16 H3         -1.1182    3.9185   -0.1049 H         1 <0>         0.0000
     17 H4         -1.2621    2.0192    4.4756 H         1 <0>         0.0000
     18 H5         -1.5487   -1.0921    3.8456 H         1 <0>         0.0000
     19 H6         -1.6796   -2.2518    2.5128 H         1 <0>         0.0000
     20 H7         -2.2023   -0.5655    2.2637 H         1 <0>         0.0000
     21 H8          1.2053   -0.8649    0.6948 H         1 <0>         0.0000
     22 H9         -0.5122   -0.6644    0.2607 H         1 <0>         0.0000
     23 H10         0.1076   -2.2606    0.7689 H         1 <0>         0.0000
     24 H11         0.4309    2.3295   -0.5263 H         1 <0>         0.0000
@<TRIPOS>BOND
     1    1    2 ar
     2    1    3 ar
     3    1   14 1
     4    2    4 ar
     5    2   15 1
     6    3    5 ar
     7    3   16 1
     8    4    6 ar
     9    4   17 1
    10    5    6 ar
    11    5   12 1
    12    6   13 1
    13    7    9 1
    14    7   18 1
    15    7   19 1
    16    7   20 1
    17    8    9 1
    18    8   21 1
    19    8   22 1
    20    8   23 1
    21    9   13 1
    22   10   13 2
    23   11   13 2
    24   12   24 1
