@<TRIPOS>MOLECULE
*****
   31    33     0     0     0
SMALL
NO_CHARGES

@<TRIPOS>ATOM
      1 C1          1.7044   -0.6867   -0.2200 C.ar      1 <0>         0.0000
      2 C2          5.7455   -4.4664    4.4036 C.ar      1 <0>         0.0000
      3 C3          1.8530   -1.9343    0.3903 C.ar      1 <0>         0.0000
      4 C4          1.6265    0.4576    0.5812 C.ar      1 <0>         0.0000
      5 C5          5.6925   -3.1190    4.0346 C.ar      1 <0>         0.0000
      6 C6          4.5709   -5.0924    4.8394 C.ar      1 <0>         0.0000
      7 C7          1.9206   -2.0389    1.7830 C.ar      1 <0>         0.0000
      8 C8          1.6965    0.3515    1.9714 C.ar      1 <0>         0.0000
      9 C9          4.4963   -2.3994    4.0944 C.ar      1 <0>         0.0000
     10 C10         3.3727   -4.3837    4.9112 C.ar      1 <0>         0.0000
     11 C11         1.8432   -0.8993    2.5981 C.ar      1 <0>         0.0000
     12 C12         3.3173   -3.0252    4.5412 C.ar      1 <0>         0.0000
     13 C13         0.9920   -0.1400    4.9380 C.3       1 <0>         0.0000
     14 C14         2.4751    0.1083    4.9316 C.3       1 <0>         0.0000
     15 C15         1.8992   -1.0296    4.0985 C.3       1 <0>         0.0000
     16 N1          2.1036   -2.3375    4.6549 N.pl3     1 <0>         0.0000
     17 H1          1.6530   -0.6049   -1.3026 H         1 <0>         0.0000
     18 H2          6.6789   -5.0193    4.3486 H         1 <0>         0.0000
     19 H3          1.9218   -2.8331   -0.2175 H         1 <0>         0.0000
     20 H4          1.5114    1.4367    0.1227 H         1 <0>         0.0000
     21 H5          6.5912   -2.6176    3.6834 H         1 <0>         0.0000
     22 H6          4.5869   -6.1403    5.1291 H         1 <0>         0.0000
     23 H7          2.0518   -3.0165    2.2340 H         1 <0>         0.0000
     24 H8          1.6326    1.2589    2.5660 H         1 <0>         0.0000
     25 H9          4.4739   -1.3627    3.7791 H         1 <0>         0.0000
     26 H10         2.4684   -4.8787    5.2614 H         1 <0>         0.0000
     27 H11         0.5586   -0.5889    5.8264 H         1 <0>         0.0000
     28 H12         0.3444    0.5468    4.4025 H         1 <0>         0.0000
     29 H13         2.8600    0.9748    4.4035 H         1 <0>         0.0000
     30 H14         3.0413   -0.1871    5.8083 H         1 <0>         0.0000
     31 H15         1.2819   -2.9301    4.6558 H         1 <0>         0.0000
@<TRIPOS>BOND
     1    1    4 ar
     2    1    3 ar
     3    1   17 1
     4    2    6 ar
     5    2    5 ar
     6    2   18 1
     7    3    7 ar
     8    3   19 1
     9    4    8 ar
    10    4   20 1
    11    5    9 ar
    12    5   21 1
    13    6   10 ar
    14    6   22 1
    15    7   11 ar
    16    7   23 1
    17    8   11 ar
    18    8   24 1
    19    9   12 ar
    20    9   25 1
    21   10   12 ar
    22   10   26 1
    23   11   15 1
    24   12   16 1
    25   13   14 1
    26   13   15 1
    27   13   27 1
    28   13   28 1
    29   14   15 1
    30   14   29 1
    31   14   30 1
    32   15   16 1
    33   16   31 1
