@<TRIPOS>MOLECULE
*****
   32    33     0     0     0
SMALL
NO_CHARGES

@<TRIPOS>ATOM
      1 C1         -1.0747   -2.8664    1.5653 C.ar      1 <0>         0.0000
      2 C2         -0.9767   -1.5183    1.1973 C.ar      1 <0>         0.0000
      3 C3          0.7558   -2.0984   -0.3880 C.ar      1 <0>         0.0000
      4 C4         -0.2736   -3.8491    0.9650 C.ar      1 <0>         0.0000
      5 C5          0.6598   -3.4383   -0.0207 C.ar      1 <0>         0.0000
      6 C6         -0.0620   -1.1320    0.2142 C.ar      1 <0>         0.0000
      7 C7          0.7078   -6.0754    1.0577 C.2       1 <0>         0.0000
      8 C8         -0.3479   -5.2830    1.3489 C.2       1 <0>         0.0000
      9 C9         -1.6462   -5.3612    3.5820 C.2       1 <0>         0.0000
     10 C10         1.5305   -4.4880   -0.6739 C.3       1 <0>         0.0000
     11 C11         1.9350   -5.5578    0.3456 C.3       1 <0>         0.0000
     12 C12        -2.8625   -5.6305    1.2921 C.3       1 <0>         0.0000
     13 C13        -0.6714    1.1718    0.3913 C.3       1 <0>         0.0000
     14 C14        -1.5542   -5.8476    2.0694 C.3       1 <0>         0.0000
     15 O1         -2.4869   -4.4474    3.8285 O.co2     1 <0>         0.0000
     16 O2         -0.8703   -5.9611    4.3661 O.co2     1 <0>         0.0000
     17 O3          0.1189    0.1691   -0.2248 O.3       1 <0>         0.0000
     18 H1         -1.7657   -3.1569    2.3554 H         1 <0>         0.0000
     19 H2         -1.6113   -0.7937    1.6971 H         1 <0>         0.0000
     20 H3          1.4716   -1.7790   -1.1426 H         1 <0>         0.0000
     21 H4          0.6996   -7.1121    1.3865 H         1 <0>         0.0000
     22 H5          0.9562   -4.9755   -1.4767 H         1 <0>         0.0000
     23 H6          2.4086   -4.0234   -1.1382 H         1 <0>         0.0000
     24 H7          2.6447   -5.1271    1.0709 H         1 <0>         0.0000
     25 H8          2.4620   -6.3772   -0.1592 H         1 <0>         0.0000
     26 H9         -3.1274   -4.5737    1.2265 H         1 <0>         0.0000
     27 H10        -3.6862   -6.1339    1.8097 H         1 <0>         0.0000
     28 H11        -2.7885   -6.0360    0.2728 H         1 <0>         0.0000
     29 H12        -0.3816    2.1167   -0.0751 H         1 <0>         0.0000
     30 H13        -0.4839    1.2291    1.4719 H         1 <0>         0.0000
     31 H14        -1.7441    1.0017    0.2267 H         1 <0>         0.0000
     32 H15        -1.3796   -6.9257    2.1428 H         1 <0>         0.0000
@<TRIPOS>BOND
     1    1    2 ar
     2    1    4 ar
     3    1   18 1
     4    2    6 ar
     5    2   19 1
     6    3    5 ar
     7    3    6 ar
     8    3   20 1
     9    4    5 ar
    10    4    8 1
    11    5   10 1
    12    6   17 1
    13    7    8 2
    14    7   11 1
    15    7   21 1
    16    8   14 1
    17    9   14 1
    18    9   15 1
    19    9   16 2
    20   10   11 1
    21   10   22 1
    22   10   23 1
    23   11   24 1
    24   11   25 1
    25   12   14 1
    26   12   26 1
    27   12   27 1
    28   12   28 1
    29   13   17 1
    30   13   29 1
    31   13   30 1
    32   13   31 1
    33   14   32 1
