@<TRIPOS>MOLECULE
*****
   24    24     0     0     0
SMALL
NO_CHARGES

@<TRIPOS>ATOM
      1 C1          1.9647   -1.0632   -0.2790 C.ar      1 <0>         0.0000
      2 C2          0.8323   -0.5828    0.3676 C.ar      1 <0>         0.0000
      3 C3          1.8818   -1.1000    2.5105 C.ar      1 <0>         0.0000
      4 C4          3.0828   -1.5341    0.4289 C.ar      1 <0>         0.0000
      5 C5          0.8136   -0.6012    1.7655 C.ar      1 <0>         0.0000
      6 C6          3.0171   -1.5581    1.8316 C.ar      1 <0>         0.0000
      7 C7          4.3447   -1.9316   -0.3817 C.2       1 <0>         0.0000
      8 N1         -0.3104    1.7359    2.5365 N.pl3     1 <0>         0.0000
      9 N2          3.5950   -2.2950    4.3819 N.pl3     1 <0>         0.0000
     10 O1          4.1611   -2.0938   -1.6126 O.co2     1 <0>         0.0000
     11 O2          5.3844   -1.9949    0.3182 O.co2     1 <0>         0.0000
     12 O3         -1.8250   -0.1423    1.8357 O.2       1 <0>         0.0000
     13 O4         -0.5461   -0.3865    4.0291 O.2       1 <0>         0.0000
     14 O5          4.6557   -3.6228    2.5069 O.2       1 <0>         0.0000
     15 O6          5.4345   -1.2068    3.0859 O.2       1 <0>         0.0000
     16 S1         -0.6014    0.0502    2.6256 S.o2      1 <0>         0.0000
     17 S2          4.3999   -2.2182    2.8422 S.o2      1 <0>         0.0000
     18 H1          2.0422   -1.0916   -1.3619 H         1 <0>         0.0000
     19 H2         -0.0240   -0.2069   -0.1847 H         1 <0>         0.0000
     20 H3          1.8266   -1.1445    3.5900 H         1 <0>         0.0000
     21 H4         -1.2141    2.2028    2.6252 H         1 <0>         0.0000
     22 H5          0.2994    2.0124    3.3067 H         1 <0>         0.0000
     23 H6          3.4568   -3.2802    4.6025 H         1 <0>         0.0000
     24 H7          4.2385   -1.8792    5.0534 H         1 <0>         0.0000
@<TRIPOS>BOND
     1    1    2 ar
     2    1    4 ar
     3    1   18 1
     4    2    5 ar
     5    2   19 1
     6    3    5 ar
     7    3    6 ar
     8    3   20 1
     9    4    6 ar
    10    4    7 1
    11    5   16 1
    12    6   17 1
    13    7   10 1
    14    7   11 2
    15    8   16 1
    16    8   21 1
    17    8   22 1
    18    9   17 1
    19    9   23 1
    20    9   24 1
    21   12   16 2
    22   13   16 2
    23   14   17 2
    24   15   17 2
