@<TRIPOS>MOLECULE
*****
   24    24     0     0     0
SMALL
NO_CHARGES

@<TRIPOS>ATOM
      1 C1          0.0606    0.8298    0.0945 C.2       1 <0>         0.0000
      2 C2          0.0046   -0.3436   -0.5991 C.2       1 <0>         0.0000
      3 C3          0.1792    2.0973   -0.5977 C.2       1 <0>         0.0000
      4 C4          0.1921   -1.1897    1.6584 C.3       1 <0>         0.0000
      5 C5         -0.2450   -1.5761    0.2316 C.3       1 <0>         0.0000
      6 C6         -1.7303   -1.9760    0.1372 C.3       1 <0>         0.0000
      7 C7         -1.1181    4.9417   -0.8930 C.3       1 <0>         0.0000
      8 C8          0.2497    4.4742   -0.4177 C.3       1 <0>         0.0000
      9 O1          0.2766    2.1792   -1.8335 O.2       1 <0>         0.0000
     10 O2          0.0774   -0.4768   -1.9291 O.3       1 <0>         0.0000
     11 O3          0.1696    3.1676    0.2149 O.3       1 <0>         0.0000
     12 S1         -0.1053    0.6268    1.8635 S.3       1 <0>         0.0000
     13 H1         -0.3691   -1.7270    2.4255 H         1 <0>         0.0000
     14 H2          1.2603   -1.3753    1.7999 H         1 <0>         0.0000
     15 H3          0.3732   -2.4007   -0.1392 H         1 <0>         0.0000
     16 H4         -2.3664   -1.1863    0.5490 H         1 <0>         0.0000
     17 H5         -1.9122   -2.8966    0.7010 H         1 <0>         0.0000
     18 H6         -2.0176   -2.1472   -0.9038 H         1 <0>         0.0000
     19 H7         -1.4970    4.2919   -1.6853 H         1 <0>         0.0000
     20 H8         -1.8335    4.9501   -0.0652 H         1 <0>         0.0000
     21 H9         -1.0390    5.9594   -1.2907 H         1 <0>         0.0000
     22 H10         0.6443    5.1219    0.3674 H         1 <0>         0.0000
     23 H11         0.9644    4.4240   -1.2414 H         1 <0>         0.0000
     24 H12         0.1758    0.4424   -2.2940 H         1 <0>         0.0000
@<TRIPOS>BOND
     1    1    2 2
     2    1    3 1
     3    1   12 1
     4    2    5 1
     5    2   10 1
     6    3    9 2
     7    3   11 1
     8    4    5 1
     9    4   12 1
    10    4   13 1
    11    4   14 1
    12    5    6 1
    13    5   15 1
    14    6   16 1
    15    6   17 1
    16    6   18 1
    17    7    8 1
    18    7   19 1
    19    7   20 1
    20    7   21 1
    21    8   11 1
    22    8   22 1
    23    8   23 1
    24   10   24 1
