@<TRIPOS>MOLECULE
*****
   28    29     0     0     0
SMALL
NO_CHARGES

@<TRIPOS>ATOM
      1 C1          4.1439    0.8619    3.9447 C.ar      1 <0>         0.0000
      2 C2          4.2211   -0.1908    3.0313 C.ar      1 <0>         0.0000
      3 C3          2.8943    1.2459    4.4478 C.ar      1 <0>         0.0000
      4 C4          3.0591   -0.8581    2.6223 C.ar      1 <0>         0.0000
      5 C5          1.7392    0.5803    4.0371 C.ar      1 <0>         0.0000
      6 C6          1.8056   -0.4822    3.1197 C.ar      1 <0>         0.0000
      7 C7         -1.7948   -0.4584    2.1898 C.2       1 <0>         0.0000
      8 C8         -3.9549   -0.4233    1.7566 C.3       1 <0>         0.0000
      9 C9         -3.6641   -1.5653    2.7634 C.3       1 <0>         0.0000
     10 C10         0.6756   -2.2952    1.6739 C.3       1 <0>         0.0000
     11 C11         0.5133   -1.1897    2.7239 C.3       1 <0>         0.0000
     12 N1         -2.6296    0.0898    1.3841 N.2       1 <0>         0.0000
     13 N2         -0.4605   -0.1664    2.3009 N.pl3     1 <0>         0.0000
     14 O1         -2.2581   -1.3901    3.0888 O.3       1 <0>         0.0000
     15 H1          5.0454    1.3799    4.2618 H         1 <0>         0.0000
     16 H2          5.1852   -0.4964    2.6324 H         1 <0>         0.0000
     17 H3          2.8223    2.0649    5.1592 H         1 <0>         0.0000
     18 H4          3.1455   -1.6732    1.9111 H         1 <0>         0.0000
     19 H5          0.7686    0.8863    4.4183 H         1 <0>         0.0000
     20 H6         -4.4926   -0.7828    0.8732 H         1 <0>         0.0000
     21 H7         -4.5577    0.3754    2.2074 H         1 <0>         0.0000
     22 H8         -4.2324   -1.5034    3.6936 H         1 <0>         0.0000
     23 H9         -3.7852   -2.5624    2.3281 H         1 <0>         0.0000
     24 H10         1.0877   -1.9019    0.7384 H         1 <0>         0.0000
     25 H11         1.3312   -3.0943    2.0344 H         1 <0>         0.0000
     26 H12        -0.3008   -2.7365    1.4567 H         1 <0>         0.0000
     27 H13         0.0940   -1.6432    3.6266 H         1 <0>         0.0000
     28 H14        -0.1471    0.4421    1.5519 H         1 <0>         0.0000
@<TRIPOS>BOND
     1    1    3 ar
     2    1    2 ar
     3    1   15 1
     4    2    4 ar
     5    2   16 1
     6    3    5 ar
     7    3   17 1
     8    4    6 ar
     9    4   18 1
    10    5    6 ar
    11    5   19 1
    12    6   11 1
    13    7   12 2
    14    7   13 1
    15    7   14 1
    16    8    9 1
    17    8   12 1
    18    8   20 1
    19    8   21 1
    20    9   14 1
    21    9   22 1
    22    9   23 1
    23   10   11 1
    24   10   24 1
    25   10   25 1
    26   10   26 1
    27   11   13 1
    28   11   27 1
    29   13   28 1
