@<TRIPOS>MOLECULE
*****
   40    41     0     0     0
SMALL
NO_CHARGES

@<TRIPOS>ATOM
      1 C1          0.4510   -2.8614   -8.3416 C.ar      1 <0>         0.0000
      2 C2         -0.6789   -2.0891   -8.1139 C.ar      1 <0>         0.0000
      3 C3          1.2779   -3.2885   -7.2859 C.ar      1 <0>         0.0000
      4 C4         -0.1883   -2.0774   -5.7244 C.ar      1 <0>         0.0000
      5 C5         -1.0168   -1.7090   -6.8037 C.ar      1 <0>         0.0000
      6 C6          0.9435   -2.8637   -5.9955 C.ar      1 <0>         0.0000
      7 C7          2.4796   -4.1994   -7.6038 C.2       1 <0>         0.0000
      8 C8         -0.5340   -1.2838   -0.0722 C.3       1 <0>         0.0000
      9 C9         -1.8521   -2.0909    0.1206 C.3       1 <0>         0.0000
     10 C10        -0.0615   -1.6080   -1.5018 C.3       1 <0>         0.0000
     11 C11        -2.2314   -2.6288   -1.2863 C.3       1 <0>         0.0000
     12 C12        -1.3725   -1.8177   -2.2745 C.3       1 <0>         0.0000
     13 C13        -5.1979   -1.7547   -6.5069 C.3       1 <0>         0.0000
     14 C14        -1.2094   -2.4959   -3.6195 C.3       1 <0>         0.0000
     15 C15        -3.7691   -2.2677   -6.6612 C.3       1 <0>         0.0000
     16 O1          3.4831   -3.5991   -8.0539 O.co2     1 <0>         0.0000
     17 O2          2.2484   -5.4160   -7.4009 O.co2     1 <0>         0.0000
     18 O3         -2.7319   -0.2289   -5.2957 O.2       1 <0>         0.0000
     19 O4         -2.8412   -0.0791   -7.8352 O.2       1 <0>         0.0000
     20 O5         -0.4284   -1.6278   -4.4532 O.3       1 <0>         0.0000
     21 S1         -2.5875   -0.8724   -6.6138 S.o2      1 <0>         0.0000
     22 Cl1         1.9771   -3.3032   -4.6389 Cl        1 <0>         0.0000
     23 H1          0.7208   -3.1461   -9.3548 H         1 <0>         0.0000
     24 H2         -1.3032   -1.7570   -8.9382 H         1 <0>         0.0000
     25 H3         -0.7374   -0.2102    0.0135 H         1 <0>         0.0000
     26 H4          0.2200   -1.5262    0.6839 H         1 <0>         0.0000
     27 H5         -1.7213   -2.9129    0.8321 H         1 <0>         0.0000
     28 H6         -2.6441   -1.4509    0.5233 H         1 <0>         0.0000
     29 H7          0.5661   -0.8300   -1.9422 H         1 <0>         0.0000
     30 H8          0.5182   -2.5400   -1.5156 H         1 <0>         0.0000
     31 H9         -1.9682   -3.6916   -1.3659 H         1 <0>         0.0000
     32 H10        -3.3030   -2.5461   -1.4962 H         1 <0>         0.0000
     33 H11        -1.8421   -0.8426   -2.4540 H         1 <0>         0.0000
     34 H12        -5.3227   -1.2365   -5.5524 H         1 <0>         0.0000
     35 H13        -5.4500   -1.0615   -7.3138 H         1 <0>         0.0000
     36 H14        -5.8981   -2.5961   -6.5404 H         1 <0>         0.0000
     37 H15        -2.1917   -2.6616   -4.0804 H         1 <0>         0.0000
     38 H16        -0.7022   -3.4644   -3.5144 H         1 <0>         0.0000
     39 H17        -3.6051   -2.7696   -7.6179 H         1 <0>         0.0000
     40 H18        -3.4828   -2.9479   -5.8554 H         1 <0>         0.0000
@<TRIPOS>BOND
     1    1    2 ar
     2    1    3 ar
     3    1   23 1
     4    2    5 ar
     5    2   24 1
     6    3    6 ar
     7    3    7 1
     8    4    5 ar
     9    4    6 ar
    10    4   20 1
    11    5   21 1
    12    6   22 1
    13    7   16 1
    14    7   17 2
    15    8    9 1
    16    8   10 1
    17    8   25 1
    18    8   26 1
    19    9   11 1
    20    9   27 1
    21    9   28 1
    22   10   12 1
    23   10   29 1
    24   10   30 1
    25   11   12 1
    26   11   31 1
    27   11   32 1
    28   12   14 1
    29   12   33 1
    30   13   15 1
    31   13   34 1
    32   13   35 1
    33   13   36 1
    34   14   20 1
    35   14   37 1
    36   14   38 1
    37   15   21 1
    38   15   39 1
    39   15   40 1
    40   18   21 2
    41   19   21 2
