@<TRIPOS>MOLECULE
*****
   68    71     0     0     0
SMALL
NO_CHARGES

@<TRIPOS>ATOM
      1 C1         -0.0952    1.2914    5.1972 C.ar      1 <0>         0.0000
      2 C2         -2.0450    5.1331    7.3781 C.ar      1 <0>         0.0000
      3 C3         -1.0688    1.7889    4.3337 C.ar      1 <0>         0.0000
      4 C4         -2.0842    5.3518    5.9941 C.ar      1 <0>         0.0000
      5 C5         -1.6195    1.5915    7.0639 C.ar      1 <0>         0.0000
      6 C6         -4.2483    6.4458    6.2081 C.ar      1 <0>         0.0000
      7 C7         -0.3597    1.2036    6.5711 C.ar      1 <0>         0.0000
      8 C8         -3.1211    5.5393    8.1643 C.ar      1 <0>         0.0000
      9 C9         -4.1909    6.2395    7.5844 C.ar      1 <0>         0.0000
     10 C10        -2.6142    2.0694    6.2093 C.ar      1 <0>         0.0000
     11 C11        -3.1998    5.9580    5.4126 C.ar      1 <0>         0.0000
     12 C12        -2.3157    2.1884    4.8367 C.ar      1 <0>         0.0000
     13 C13         1.5772    0.2824    9.4081 C.2       1 <0>         0.0000
     14 C14         2.5051    0.0917    8.4076 C.2       1 <0>         0.0000
     15 C15         0.6867    0.7556    7.4783 C.2       1 <0>         0.0000
     16 C16         1.6066    0.1891   10.8737 C.2       1 <0>         0.0000
     17 C17        -1.5170    3.6903   10.3732 C.2       1 <0>         0.0000
     18 C18        -5.2016    6.6143    8.6525 C.3       1 <0>         0.0000
     19 C19        -4.3969    6.4164    9.9622 C.3       1 <0>         0.0000
     20 C20        -3.4081    5.2752    9.6283 C.3       1 <0>         0.0000
     21 C21         3.9286   -0.3476    8.5143 C.3       1 <0>         0.0000
     22 C22         0.3733    0.6489   11.5989 C.3       1 <0>         0.0000
     23 C23        -6.4147    1.9461    7.0619 C.3       1 <0>         0.0000
     24 C24        -3.9512    2.4934    6.7627 C.3       1 <0>         0.0000
     25 C25        -2.1998    5.0868   10.5362 C.3       1 <0>         0.0000
     26 C26        -5.0691    1.4691    6.5034 C.3       1 <0>         0.0000
     27 C27        -3.9278    4.3685    2.3711 C.3       1 <0>         0.0000
     28 C28        -4.3937    5.3439    3.4518 C.3       1 <0>         0.0000
     29 C29        -2.8386    3.4164    2.8496 C.3       1 <0>         0.0000
     30 N1          1.9231    0.3965    7.1898 N.2       1 <0>         0.0000
     31 O1         -2.2437    2.7537    9.9217 O.co2     1 <0>         0.0000
     32 O2          2.6235   -0.2267   11.4429 O.2       1 <0>         0.0000
     33 O3         -0.3100    3.6309   10.7360 O.co2     1 <0>         0.0000
     34 O4          0.4088    0.7018    8.7985 O.3       1 <0>         0.0000
     35 O5         -3.2715    6.0384    4.0222 O.3       1 <0>         0.0000
     36 O6         -3.2875    2.7434    4.0299 O.3       1 <0>         0.0000
     37 H1          0.8776    0.9901    4.8206 H         1 <0>         0.0000
     38 H2         -1.2119    4.5947    7.8193 H         1 <0>         0.0000
     39 H3         -0.8496    1.8703    3.2744 H         1 <0>         0.0000
     40 H4         -1.2849    4.9908    5.3537 H         1 <0>         0.0000
     41 H5         -1.8026    1.6041    8.1387 H         1 <0>         0.0000
     42 H6         -5.0912    6.9526    5.7421 H         1 <0>         0.0000
     43 H7         -5.6022    7.6275    8.5302 H         1 <0>         0.0000
     44 H8         -6.0553    5.9212    8.6216 H         1 <0>         0.0000
     45 H9         -3.8378    7.3333   10.1912 H         1 <0>         0.0000
     46 H10        -5.0318    6.1841   10.8242 H         1 <0>         0.0000
     47 H11        -3.9543    4.3214    9.6653 H         1 <0>         0.0000
     48 H12         4.0796   -1.2829    7.9624 H         1 <0>         0.0000
     49 H13         4.5883    0.4045    8.0673 H         1 <0>         0.0000
     50 H14         4.2004   -0.4975    9.5595 H         1 <0>         0.0000
     51 H15        -0.5108    0.1082   11.2430 H         1 <0>         0.0000
     52 H16         0.1705    1.7103   11.3658 H         1 <0>         0.0000
     53 H17         0.5091    0.4958   12.6719 H         1 <0>         0.0000
     54 H18        -6.3482    2.1217    8.1418 H         1 <0>         0.0000
     55 H19        -6.7196    2.8902    6.5936 H         1 <0>         0.0000
     56 H20        -7.2101    1.2115    6.8873 H         1 <0>         0.0000
     57 H21        -3.8383    2.6526    7.8388 H         1 <0>         0.0000
     58 H22        -4.2425    3.4506    6.3195 H         1 <0>         0.0000
     59 H23        -2.5185    5.1562   11.5855 H         1 <0>         0.0000
     60 H24        -1.4510    5.8715   10.3824 H         1 <0>         0.0000
     61 H25        -5.1563    1.2879    5.4253 H         1 <0>         0.0000
     62 H26        -4.7942    0.5121    6.9639 H         1 <0>         0.0000
     63 H27        -4.8019    3.8042    2.0220 H         1 <0>         0.0000
     64 H28        -3.5289    4.9191    1.5102 H         1 <0>         0.0000
     65 H29        -5.0869    6.0776    3.0190 H         1 <0>         0.0000
     66 H30        -4.9207    4.7946    4.2355 H         1 <0>         0.0000
     67 H31        -1.9309    3.9836    3.0785 H         1 <0>         0.0000
     68 H32        -2.6047    2.6880    2.0607 H         1 <0>         0.0000
@<TRIPOS>BOND
     1    1    3 ar
     2    1    7 ar
     3    1   37 1
     4    2    4 ar
     5    2    8 ar
     6    2   38 1
     7    3   12 ar
     8    3   39 1
     9    4   11 ar
    10    4   40 1
    11    5    7 ar
    12    5   10 ar
    13    5   41 1
    14    6    9 ar
    15    6   11 ar
    16    6   42 1
    17    7   15 1
    18    8    9 ar
    19    8   20 1
    20    9   18 1
    21   10   12 ar
    22   10   24 1
    23   11   35 1
    24   12   36 1
    25   13   14 2
    26   13   16 1
    27   13   34 1
    28   14   21 1
    29   14   30 1
    30   15   30 2
    31   15   34 1
    32   16   22 1
    33   16   32 2
    34   17   25 1
    35   17   31 1
    36   17   33 2
    37   18   19 1
    38   18   43 1
    39   18   44 1
    40   19   20 1
    41   19   45 1
    42   19   46 1
    43   20   25 1
    44   20   47 1
    45   21   48 1
    46   21   49 1
    47   21   50 1
    48   22   51 1
    49   22   52 1
    50   22   53 1
    51   23   26 1
    52   23   54 1
    53   23   55 1
    54   23   56 1
    55   24   26 1
    56   24   57 1
    57   24   58 1
    58   25   59 1
    59   25   60 1
    60   26   61 1
    61   26   62 1
    62   27   28 1
    63   27   29 1
    64   27   63 1
    65   27   64 1
    66   28   35 1
    67   28   65 1
    68   28   66 1
    69   29   36 1
    70   29   67 1
    71   29   68 1
