@<TRIPOS>MOLECULE
*****
   62    66     0     0     0
SMALL
NO_CHARGES

@<TRIPOS>ATOM
      1 C1         -0.4784   -5.1270   -9.1183 C.ar      1 <0>         0.0000
      2 C2         -0.2022   -5.0904   -7.7592 C.ar      1 <0>         0.0000
      3 C3          0.2212   -5.9854  -10.0053 C.ar      1 <0>         0.0000
      4 C4          0.7073   -1.4553   -2.6189 C.ar      1 <0>         0.0000
      5 C5         -1.0625   -1.7054   -0.4889 C.ar      1 <0>         0.0000
      6 C6          2.3362   -7.1369   -6.0914 C.2       1 <0>         0.0000
      7 C7          0.8106   -5.9360   -7.2593 C.ar      1 <0>         0.0000
      8 C8          0.0801   -2.6915   -2.3938 C.ar      1 <0>         0.0000
      9 C9          1.3628   -6.1706   -5.9433 C.2       1 <0>         0.0000
     10 C10         0.9501   -5.5024   -4.7061 C.2       1 <0>         0.0000
     11 C11         0.8719   -4.0836   -4.4932 C.2       1 <0>         0.0000
     12 C12        -0.7952   -2.8157   -1.2910 C.ar      1 <0>         0.0000
     13 C13         1.4988   -6.7930   -8.1503 C.ar      1 <0>         0.0000
     14 C14         1.2180   -6.8307   -9.5254 C.ar      1 <0>         0.0000
     15 C15         0.4346   -0.3512   -1.8181 C.ar      1 <0>         0.0000
     16 C16        -0.4759   -0.4655   -0.7494 C.ar      1 <0>         0.0000
     17 C17         0.3210   -3.8700   -3.2252 C.2       1 <0>         0.0000
     18 C18         0.4271   -6.1161   -3.5743 C.2       1 <0>         0.0000
     19 C19         1.3142   -3.0843   -5.4827 C.2       1 <0>         0.0000
     20 C20        -1.4370   -4.1590   -1.0284 C.3       1 <0>         0.0000
     21 C21        -0.4536   -5.2888   -1.3355 C.3       1 <0>         0.0000
     22 C22         0.1923   -7.5655   -3.2968 C.3       1 <0>         0.0000
     23 C23        -0.0501    0.2355   -6.1367 C.3       1 <0>         0.0000
     24 C24         1.7266   -7.7561  -11.6683 C.3       1 <0>         0.0000
     25 C25         2.0388    1.2604   -1.1578 C.3       1 <0>         0.0000
     26 C26        -1.4927    1.6646   -0.5462 C.3       1 <0>         0.0000
     27 C27         0.8808   -0.9332   -6.4094 C.3       1 <0>         0.0000
     28 N1          2.4174   -7.5211   -7.4201 N.pl3     1 <0>         0.0000
     29 N2          0.0508   -5.1191   -2.6932 N.pl3     1 <0>         0.0000
     30 O1          2.3005   -3.1909   -6.1908 O.2       1 <0>         0.0000
     31 O2          1.9697   -7.7134  -10.2662 O.3       1 <0>         0.0000
     32 O3          1.0482    0.8519   -2.1154 O.3       1 <0>         0.0000
     33 O4         -0.7596    0.5991    0.0820 O.3       1 <0>         0.0000
     34 O5          0.4738   -2.0155   -5.5387 O.3       1 <0>         0.0000
     35 H1         -1.2518   -4.4828   -9.5288 H         1 <0>         0.0000
     36 H2         -0.7481   -4.4253   -7.0961 H         1 <0>         0.0000
     37 H3         -0.0326   -5.9725  -11.0595 H         1 <0>         0.0000
     38 H4          1.4271   -1.3309   -3.4172 H         1 <0>         0.0000
     39 H5         -1.7433   -1.7817    0.3556 H         1 <0>         0.0000
     40 H6          3.0011   -7.5591   -5.3497 H         1 <0>         0.0000
     41 H7         -1.7700   -4.2331    0.0110 H         1 <0>         0.0000
     42 H8         -2.3216   -4.2830   -1.6676 H         1 <0>         0.0000
     43 H9          0.3834   -5.2713   -0.6245 H         1 <0>         0.0000
     44 H10        -0.9419   -6.2622   -1.2598 H         1 <0>         0.0000
     45 H11         0.8061   -7.9410   -2.4685 H         1 <0>         0.0000
     46 H12        -0.8570   -7.7698   -3.0498 H         1 <0>         0.0000
     47 H13         0.4435   -8.1428   -4.1889 H         1 <0>         0.0000
     48 H14        -1.0907   -0.0418   -6.3310 H         1 <0>         0.0000
     49 H15         0.0330    0.5640   -5.0965 H         1 <0>         0.0000
     50 H16         0.2108    1.0763   -6.7882 H         1 <0>         0.0000
     51 H17         2.4172   -8.4979  -12.0725 H         1 <0>         0.0000
     52 H18         1.9224   -6.7827  -12.1347 H         1 <0>         0.0000
     53 H19         0.6954   -8.0622  -11.8839 H         1 <0>         0.0000
     54 H20         2.4415    2.2083   -1.5208 H         1 <0>         0.0000
     55 H21         2.8438    0.5174   -1.1031 H         1 <0>         0.0000
     56 H22         1.5966    1.3984   -0.1661 H         1 <0>         0.0000
     57 H23        -1.6523    2.4197    0.2262 H         1 <0>         0.0000
     58 H24        -2.4617    1.2980   -0.9065 H         1 <0>         0.0000
     59 H25        -0.9295    2.0952   -1.3795 H         1 <0>         0.0000
     60 H26         1.9249   -0.6818   -6.2011 H         1 <0>         0.0000
     61 H27         0.8226   -1.2785   -7.4462 H         1 <0>         0.0000
     62 H28         3.0729   -8.1792   -7.8145 H         1 <0>         0.0000
@<TRIPOS>BOND
     1    1    2 ar
     2    1    3 ar
     3    1   35 1
     4    2    7 ar
     5    2   36 1
     6    3   14 ar
     7    3   37 1
     8    4    8 ar
     9    4   15 ar
    10    4   38 1
    11    5   12 ar
    12    5   16 ar
    13    5   39 1
    14    6    9 2
    15    6   28 1
    16    6   40 1
    17    7    9 1
    18    7   13 ar
    19    8   12 ar
    20    8   17 1
    21    9   10 1
    22   10   11 1
    23   10   18 2
    24   11   17 2
    25   11   19 1
    26   12   20 1
    27   13   14 ar
    28   13   28 1
    29   14   31 1
    30   15   16 ar
    31   15   32 1
    32   16   33 1
    33   17   29 1
    34   18   22 1
    35   18   29 1
    36   19   30 2
    37   19   34 1
    38   20   21 1
    39   20   41 1
    40   20   42 1
    41   21   29 1
    42   21   43 1
    43   21   44 1
    44   22   45 1
    45   22   46 1
    46   22   47 1
    47   23   27 1
    48   23   48 1
    49   23   49 1
    50   23   50 1
    51   24   31 1
    52   24   51 1
    53   24   52 1
    54   24   53 1
    55   25   32 1
    56   25   54 1
    57   25   55 1
    58   25   56 1
    59   26   33 1
    60   26   57 1
    61   26   58 1
    62   26   59 1
    63   27   34 1
    64   27   60 1
    65   27   61 1
    66   28   62 1
