@<TRIPOS>MOLECULE
*****
   74    77     0     0     0
SMALL
NO_CHARGES

@<TRIPOS>ATOM
      1 C1          6.2253   -5.0838    5.1219 C.ar      1 <0>         0.0000
      2 C2          5.5238   -4.3318    6.0714 C.ar      1 <0>         0.0000
      3 C3          7.3853   -4.5531    4.5484 C.ar      1 <0>         0.0000
      4 C4         -9.5848   -2.0599    4.8080 C.ar      1 <0>         0.0000
      5 C5        -10.0429   -3.3585    4.5737 C.ar      1 <0>         0.0000
      6 C6          5.9729   -3.0616    6.4339 C.ar      1 <0>         0.0000
      7 C7          7.8368   -3.2839    4.9205 C.ar      1 <0>         0.0000
      8 C8          7.0847    2.4199    6.0541 C.ar      1 <0>         0.0000
      9 C9          7.6290    1.3713    8.1481 C.ar      1 <0>         0.0000
     10 C10         4.3468    0.4919    6.2666 C.ar      1 <0>         0.0000
     11 C11         5.2278   -0.6495    4.3447 C.ar      1 <0>         0.0000
     12 C12         7.4290    3.6647    6.5733 C.ar      1 <0>         0.0000
     13 C13         7.9693    2.6144    8.6882 C.ar      1 <0>         0.0000
     14 C14         3.0758    0.4745    5.7039 C.ar      1 <0>         0.0000
     15 C15         3.9594   -0.6663    3.7583 C.ar      1 <0>         0.0000
     16 C16        -8.2238   -1.8592    5.0376 C.ar      1 <0>         0.0000
     17 C17        -9.1121   -4.4012    4.5776 C.ar      1 <0>         0.0000
     18 C18         7.1937    1.2446    6.8209 C.ar      1 <0>         0.0000
     19 C19         5.4484   -0.0901    5.6102 C.ar      1 <0>         0.0000
     20 C20         7.1307   -2.5101    5.8571 C.ar      1 <0>         0.0000
     21 C21         7.8758    3.7651    7.8976 C.ar      1 <0>         0.0000
     22 C22         2.8707   -0.1116    4.4447 C.ar      1 <0>         0.0000
     23 C23        -7.3711   -2.9721    5.0168 C.ar      1 <0>         0.0000
     24 C24         6.7981   -0.0707    6.2423 C.2       1 <0>         0.0000
     25 C25         7.6122   -1.1598    6.2687 C.2       1 <0>         0.0000
     26 C26         9.3209   -1.9334    8.0018 C.3       1 <0>         0.0000
     27 C27        -5.8890   -2.8192    5.2376 C.3       1 <0>         0.0000
     28 C28         9.0565   -1.1125    6.7279 C.3       1 <0>         0.0000
     29 C29        -1.0213   -1.3602    3.4744 C.3       1 <0>         0.0000
     30 C30        -0.1812   -0.5898    2.4498 C.3       1 <0>         0.0000
     31 C31        -2.5243   -1.2599    3.1863 C.3       1 <0>         0.0000
     32 C32         1.3152   -0.6917    2.7063 C.3       1 <0>         0.0000
     33 C33        -3.3411   -2.0233    4.2294 C.3       1 <0>         0.0000
     34 N1         -7.8017   -4.2230    4.7906 N.ar      1 <0>         0.0000
     35 O1         -5.5235   -0.5000    3.9464 O.2       1 <0>         0.0000
     36 O2         -5.3590   -2.6593    2.5936 O.2       1 <0>         0.0000
     37 O3          8.1959    5.0174    8.3661 O.3       1 <0>         0.0000
     38 O4          1.5857   -0.0832    3.9723 O.3       1 <0>         0.0000
     39 S1         -5.1149   -1.9154    3.8396 S.o2      1 <0>         0.0000
     40 H1          5.8754   -6.0726    4.8366 H         1 <0>         0.0000
     41 H2          4.6256   -4.7368    6.5312 H         1 <0>         0.0000
     42 H3          7.9395   -5.1273    3.8099 H         1 <0>         0.0000
     43 H4        -10.2727   -1.2185    4.8094 H         1 <0>         0.0000
     44 H5        -11.0936   -3.5640    4.3902 H         1 <0>         0.0000
     45 H6          5.4210   -2.4799    7.1662 H         1 <0>         0.0000
     46 H7          8.7350   -2.8827    4.4581 H         1 <0>         0.0000
     47 H8          6.7249    2.3519    5.0311 H         1 <0>         0.0000
     48 H9          7.6879    0.4874    8.7759 H         1 <0>         0.0000
     49 H10         4.4914    0.9580    7.2375 H         1 <0>         0.0000
     50 H11         6.0612   -1.0852    3.8032 H         1 <0>         0.0000
     51 H12         7.3538    4.5667    5.9729 H         1 <0>         0.0000
     52 H13         8.2976    2.6858    9.7243 H         1 <0>         0.0000
     53 H14         2.2262    0.9132    6.2195 H         1 <0>         0.0000
     54 H15         3.8380   -1.1085    2.7760 H         1 <0>         0.0000
     55 H16        -7.8175   -0.8665    5.2029 H         1 <0>         0.0000
     56 H17        -9.4309   -5.4269    4.3997 H         1 <0>         0.0000
     57 H18         9.0521   -2.9842    7.8574 H         1 <0>         0.0000
     58 H19         8.7337   -1.5549    8.8451 H         1 <0>         0.0000
     59 H20        10.3796   -1.8877    8.2790 H         1 <0>         0.0000
     60 H21        -5.4224   -3.8043    5.2876 H         1 <0>         0.0000
     61 H22        -5.6550   -2.2304    6.1284 H         1 <0>         0.0000
     62 H23         9.3743   -0.0787    6.8746 H         1 <0>         0.0000
     63 H24         9.6872   -1.5172    5.9257 H         1 <0>         0.0000
     64 H25        -0.7162   -2.4155    3.4721 H         1 <0>         0.0000
     65 H26        -0.8056   -0.9736    4.4763 H         1 <0>         0.0000
     66 H27        -0.4689    0.4680    2.4497 H         1 <0>         0.0000
     67 H28        -0.3771   -0.9734    1.4405 H         1 <0>         0.0000
     68 H29        -2.8359   -0.2105    3.1849 H         1 <0>         0.0000
     69 H30        -2.7435   -1.6646    2.1927 H         1 <0>         0.0000
     70 H31         1.6337   -1.7434    2.7245 H         1 <0>         0.0000
     71 H32         1.8788   -0.1751    1.9179 H         1 <0>         0.0000
     72 H33        -3.0917   -3.0885    4.2400 H         1 <0>         0.0000
     73 H34        -3.2103   -1.6049    5.2320 H         1 <0>         0.0000
     74 H35         8.4876    4.9445    9.2886 H         1 <0>         0.0000
@<TRIPOS>BOND
     1    1    3 ar
     2    1    2 ar
     3    1   40 1
     4    2    6 ar
     5    2   41 1
     6    3    7 ar
     7    3   42 1
     8    4    5 ar
     9    4   16 ar
    10    4   43 1
    11    5   17 ar
    12    5   44 1
    13    6   20 ar
    14    6   45 1
    15    7   20 ar
    16    7   46 1
    17    8   12 ar
    18    8   18 ar
    19    8   47 1
    20    9   13 ar
    21    9   18 ar
    22    9   48 1
    23   10   14 ar
    24   10   19 ar
    25   10   49 1
    26   11   15 ar
    27   11   19 ar
    28   11   50 1
    29   12   21 ar
    30   12   51 1
    31   13   21 ar
    32   13   52 1
    33   14   22 ar
    34   14   53 1
    35   15   22 ar
    36   15   54 1
    37   16   23 ar
    38   16   55 1
    39   17   34 ar
    40   17   56 1
    41   18   24 1
    42   19   24 1
    43   20   25 1
    44   21   37 1
    45   22   38 1
    46   23   27 1
    47   23   34 ar
    48   24   25 2
    49   25   28 1
    50   26   28 1
    51   26   57 1
    52   26   58 1
    53   26   59 1
    54   27   39 1
    55   27   60 1
    56   27   61 1
    57   28   62 1
    58   28   63 1
    59   29   30 1
    60   29   31 1
    61   29   64 1
    62   29   65 1
    63   30   32 1
    64   30   66 1
    65   30   67 1
    66   31   33 1
    67   31   68 1
    68   31   69 1
    69   32   38 1
    70   32   70 1
    71   32   71 1
    72   33   39 1
    73   33   72 1
    74   33   73 1
    75   35   39 2
    76   36   39 2
    77   37   74 1
