@<TRIPOS>MOLECULE
*****
   58    60     0     0     0
SMALL
NO_CHARGES

@<TRIPOS>ATOM
      1 C1         -4.5649    2.8007    6.4427 C.ar      1 <0>         0.0000
      2 C2         -4.5402    1.8998    5.3728 C.ar      1 <0>         0.0000
      3 C3         -3.8743    2.4917    7.6195 C.ar      1 <0>         0.0000
      4 C4          4.3454   -4.4007    7.1003 C.ar      1 <0>         0.0000
      5 C5         -3.8272    0.7020    5.4812 C.ar      1 <0>         0.0000
      6 C6         -3.1641    1.2917    7.7218 C.ar      1 <0>         0.0000
      7 C7          4.2663   -4.8364    5.7782 C.ar      1 <0>         0.0000
      8 C8          3.1882   -4.1592    7.8486 C.ar      1 <0>         0.0000
      9 C9          1.8505   -4.8379    5.9126 C.ar      1 <0>         0.0000
     10 C10         1.3548   -6.4045    0.8857 C.ar      1 <0>         0.0000
     11 C11        -3.1297    0.3808    6.6553 C.ar      1 <0>         0.0000
     12 C12         3.0178   -5.0613    5.1625 C.ar      1 <0>         0.0000
     13 C13         1.9611   -4.3848    7.2240 C.ar      1 <0>         0.0000
     14 C14         0.0225   -6.1800    1.1892 C.ar      1 <0>         0.0000
     15 C15        -0.2913   -5.6885    2.4846 C.ar      1 <0>         0.0000
     16 C16         1.9594   -5.7234    2.9610 C.ar      1 <0>         0.0000
     17 C17        -3.1699   -4.2049    4.2751 C.3       1 <0>         0.0000
     18 C18        -2.3178   -0.8899    6.7501 C.3       1 <0>         0.0000
     19 C19        -0.8684   -0.6869    6.2751 C.3       1 <0>         0.0000
     20 C20        -0.0327   -1.9644    6.3659 C.3       1 <0>         0.0000
     21 C21        -2.1288   -6.3899    5.0545 C.3       1 <0>         0.0000
     22 C22        -1.9305   -5.1009    4.2577 C.3       1 <0>         0.0000
     23 N1          2.3509   -6.1821    1.7567 N.ar      1 <0>         0.0000
     24 N2          0.7100   -5.4722    3.3595 N.ar      1 <0>         0.0000
     25 N3          3.0077   -5.5096    3.8402 N.pl3     1 <0>         0.0000
     26 N4         -1.5576   -5.3973    2.8692 N.pl3     1 <0>         0.0000
     27 N5          0.1165   -2.3833    7.7713 N.pl3     1 <0>         0.0000
     28 O1         -0.6422   -4.7617    7.4480 O.2       1 <0>         0.0000
     29 O2          0.6877   -4.0726    9.5332 O.2       1 <0>         0.0000
     30 O3         -3.1812   -7.1303    4.4181 O.3       1 <0>         0.0000
     31 S1          0.4335   -4.0036    8.0940 S.o2      1 <0>         0.0000
     32 Br1        -1.3499   -6.5244   -0.0999 Br        1 <0>         0.0000
     33 H1         -5.1212    3.7311    6.3624 H         1 <0>         0.0000
     34 H2         -5.0795    2.1281    4.4567 H         1 <0>         0.0000
     35 H3         -3.8939    3.1824    8.4589 H         1 <0>         0.0000
     36 H4          5.3216   -4.2490    7.5524 H         1 <0>         0.0000
     37 H5         -3.8171    0.0033    4.6464 H         1 <0>         0.0000
     38 H6         -2.6360    1.0542    8.6434 H         1 <0>         0.0000
     39 H7          5.1805   -5.0111    5.2149 H         1 <0>         0.0000
     40 H8          3.2335   -3.8341    8.8828 H         1 <0>         0.0000
     41 H9          0.8857   -5.0298    5.4743 H         1 <0>         0.0000
     42 H10         1.6380   -6.7795   -0.0956 H         1 <0>         0.0000
     43 H11        -4.0286   -4.7103    3.8237 H         1 <0>         0.0000
     44 H12        -2.9796   -3.2767    3.7278 H         1 <0>         0.0000
     45 H13        -3.4311   -3.9570    5.3079 H         1 <0>         0.0000
     46 H14        -2.7803   -1.6741    6.1400 H         1 <0>         0.0000
     47 H15        -2.3034   -1.2602    7.7793 H         1 <0>         0.0000
     48 H16        -0.3962    0.1131    6.8595 H         1 <0>         0.0000
     49 H17        -0.8639   -0.3479    5.2323 H         1 <0>         0.0000
     50 H18         0.9446   -1.8296    5.8837 H         1 <0>         0.0000
     51 H19        -0.5503   -2.7717    5.8440 H         1 <0>         0.0000
     52 H20        -1.1918   -6.9616    5.0546 H         1 <0>         0.0000
     53 H21        -2.3800   -6.1377    6.0910 H         1 <0>         0.0000
     54 H22        -1.0943   -4.5700    4.7093 H         1 <0>         0.0000
     55 H23         3.9054   -5.7136    3.4177 H         1 <0>         0.0000
     56 H24        -2.2959   -5.7730    2.2847 H         1 <0>         0.0000
     57 H25         0.7441   -1.7957    8.3184 H         1 <0>         0.0000
     58 H26        -3.3071   -7.9595    4.9023 H         1 <0>         0.0000
@<TRIPOS>BOND
     1    1    3 ar
     2    1    2 ar
     3    1   33 1
     4    2    5 ar
     5    2   34 1
     6    3    6 ar
     7    3   35 1
     8    4    7 ar
     9    4    8 ar
    10    4   36 1
    11    5   11 ar
    12    5   37 1
    13    6   11 ar
    14    6   38 1
    15    7   12 ar
    16    7   39 1
    17    8   13 ar
    18    8   40 1
    19    9   12 ar
    20    9   13 ar
    21    9   41 1
    22   10   14 ar
    23   10   23 ar
    24   10   42 1
    25   11   18 1
    26   12   25 1
    27   13   31 1
    28   14   15 ar
    29   14   32 1
    30   15   24 ar
    31   15   26 1
    32   16   23 ar
    33   16   24 ar
    34   16   25 1
    35   17   22 1
    36   17   43 1
    37   17   44 1
    38   17   45 1
    39   18   19 1
    40   18   46 1
    41   18   47 1
    42   19   20 1
    43   19   48 1
    44   19   49 1
    45   20   27 1
    46   20   50 1
    47   20   51 1
    48   21   22 1
    49   21   30 1
    50   21   52 1
    51   21   53 1
    52   22   26 1
    53   22   54 1
    54   25   55 1
    55   26   56 1
    56   27   31 1
    57   27   57 1
    58   28   31 2
    59   29   31 2
    60   30   58 1
