@<TRIPOS>MOLECULE
*****
   25    26     0     0     0
SMALL
NO_CHARGES

@<TRIPOS>ATOM
      1 C1         -2.2502    1.3580   -5.3170 C.ar      1 <0>         0.0000
      2 C2         -3.8186    0.0247   -6.6346 C.ar      1 <0>         0.0000
      3 C3         -1.6615    0.1902   -4.8115 C.ar      1 <0>         0.0000
      4 C4         -3.2205   -1.1237   -6.1172 C.ar      1 <0>         0.0000
      5 C5         -2.1609   -1.0582   -5.2220 C.ar      1 <0>         0.0000
      6 C6         -3.3130    1.2520   -6.2177 C.ar      1 <0>         0.0000
      7 C7          3.3364    1.0591   -2.5377 C.3       1 <0>         0.0000
      8 C8          2.8882    2.4085   -1.9663 C.3       1 <0>         0.0000
      9 C9          1.0844    1.0863   -2.5761 C.3       1 <0>         0.0000
     10 C10        -0.0804    1.3979   -3.4974 C.3       1 <0>         0.0000
     11 O1          2.2066    0.6628   -3.3204 O.3       1 <0>         0.0000
     12 O2          1.4567    2.2867   -1.8956 O.3       1 <0>         0.0000
     13 O3         -0.6251    0.1532   -3.9378 O.3       1 <0>         0.0000
     14 F1         -3.6757   -2.3362   -6.4906 F         1 <0>         0.0000
     15 F2         -1.6115   -2.1888   -4.7458 F         1 <0>         0.0000
     16 Br1        -4.0957    2.8608   -6.9035 Br        1 <0>         0.0000
     17 H1         -1.8918    2.3345   -5.0200 H         1 <0>         0.0000
     18 H2         -4.6430   -0.0621   -7.3328 H         1 <0>         0.0000
     19 H3          4.2036    1.1193   -3.1972 H         1 <0>         0.0000
     20 H4          3.5283    0.3261   -1.7420 H         1 <0>         0.0000
     21 H5          3.2821    2.6046   -0.9650 H         1 <0>         0.0000
     22 H6          3.1458    3.2409   -2.6308 H         1 <0>         0.0000
     23 H7          0.8020    0.3199   -1.8374 H         1 <0>         0.0000
     24 H8          0.2831    1.9901   -4.3443 H         1 <0>         0.0000
     25 H9         -0.8307    1.9694   -2.9392 H         1 <0>         0.0000
@<TRIPOS>BOND
     1    1    3 ar
     2    1    6 ar
     3    1   17 1
     4    2    4 ar
     5    2    6 ar
     6    2   18 1
     7    3    5 ar
     8    3   13 1
     9    4    5 ar
    10    4   14 1
    11    5   15 1
    12    6   16 1
    13    7    8 1
    14    7   11 1
    15    7   19 1
    16    7   20 1
    17    8   12 1
    18    8   21 1
    19    8   22 1
    20    9   10 1
    21    9   12 1
    22    9   11 1
    23    9   23 1
    24   10   13 1
    25   10   24 1
    26   10   25 1
