@<TRIPOS>MOLECULE
*****
   28    30     0     0     0
SMALL
NO_CHARGES

@<TRIPOS>ATOM
      1 C1         -0.2269    0.7503   -4.0131 C.ar      1 <0>         0.0000
      2 C2          0.5999    0.6913    3.0583 C.ar      1 <0>         0.0000
      3 C3          0.7262    0.2626    1.7216 C.ar      1 <0>         0.0000
      4 C4         -0.0269    0.1995   -5.2733 C.ar      1 <0>         0.0000
      5 C5         -1.5353    1.0532    1.1823 C.ar      1 <0>         0.0000
      6 C6          0.5262   -1.9259   -4.2265 C.ar      1 <0>         0.0000
      7 C7         -0.0620    0.0003   -2.8342 C.ar      1 <0>         0.0000
      8 C8         -0.5906    1.2957    3.4130 C.ar      1 <0>         0.0000
      9 C9         -1.6291    1.4693    2.4959 C.ar      1 <0>         0.0000
     10 C10        -0.3182    0.4476    0.8214 C.ar      1 <0>         0.0000
     11 C11         0.3186   -1.3433   -2.9785 C.ar      1 <0>         0.0000
     12 C12         0.3500   -1.1444   -5.3669 C.ar      1 <0>         0.0000
     13 C13        -0.3074    0.7166   -1.5484 C.2       1 <0>         0.0000
     14 C14        -2.2143    2.4683    4.4095 C.3       1 <0>         0.0000
     15 O1         -0.6277    1.8870   -1.4906 O.2       1 <0>         0.0000
     16 O2         -0.9815    1.7707    4.6486 O.3       1 <0>         0.0000
     17 O3         -2.7056    2.0596    3.1213 O.3       1 <0>         0.0000
     18 O4         -0.1342   -0.0848   -0.4639 O.3       1 <0>         0.0000
     19 F1          0.5038   -2.1396   -1.9092 F         1 <0>         0.0000
     20 Cl1         0.6072   -1.8634   -6.9395 Cl        1 <0>         0.0000
     21 H1         -0.5199    1.7897   -3.9078 H         1 <0>         0.0000
     22 H2          1.4008    0.5498    3.7763 H         1 <0>         0.0000
     23 H3          1.6352   -0.2208    1.3795 H         1 <0>         0.0000
     24 H4         -0.1596    0.7950   -6.1701 H         1 <0>         0.0000
     25 H5         -2.3412    1.1951    0.4730 H         1 <0>         0.0000
     26 H6          0.8189   -2.9683   -4.2878 H         1 <0>         0.0000
     27 H7         -2.9408    2.1934    5.1767 H         1 <0>         0.0000
     28 H8         -2.0240    3.5502    4.3974 H         1 <0>         0.0000
@<TRIPOS>BOND
     1    1    4 ar
     2    1    7 ar
     3    1   21 1
     4    2    3 ar
     5    2    8 ar
     6    2   22 1
     7    3   10 ar
     8    3   23 1
     9    4   12 ar
    10    4   24 1
    11    5    9 ar
    12    5   10 ar
    13    5   25 1
    14    6   11 ar
    15    6   12 ar
    16    6   26 1
    17    7   11 ar
    18    7   13 1
    19    8    9 ar
    20    8   16 1
    21    9   17 1
    22   10   18 1
    23   11   19 1
    24   12   20 1
    25   13   15 2
    26   13   18 1
    27   14   16 1
    28   14   17 1
    29   14   27 1
    30   14   28 1
