@<TRIPOS>MOLECULE
*****
   33    34     0     0     0
SMALL
NO_CHARGES

@<TRIPOS>ATOM
      1 C1          2.0722    1.0474   -3.6058 C.2       1 <0>         0.0000
      2 C2          1.9567    2.4069   -3.4714 C.2       1 <0>         0.0000
      3 C3          0.7509    1.0741   -1.8237 C.2       1 <0>         0.0000
      4 C4         -0.7116    1.2383    0.1540 C.2       1 <0>         0.0000
      5 C5         -2.9978    0.7369    1.0420 C.3       1 <0>         0.0000
      6 C6         -1.2612   -1.0862    1.2083 C.3       1 <0>         0.0000
      7 C7         -3.7984    0.0143    2.1369 C.3       1 <0>         0.0000
      8 C8         -2.1242   -1.7387    2.3066 C.3       1 <0>         0.0000
      9 C9         -1.4916    0.4329    1.1876 C.3       1 <0>         0.0000
     10 C10         2.8530    0.2976   -4.6471 C.3       1 <0>         0.0000
     11 C11         2.5512    3.5158   -4.2902 C.3       1 <0>         0.0000
     12 N1          1.3806    0.2986   -2.6613 N.2       1 <0>         0.0000
     13 N2         -3.5535   -1.4318    2.2105 N.3       1 <0>         0.0000
     14 N3         -0.0082    0.5282   -0.7918 N.am      1 <0>         0.0000
     15 O1         -0.7220    2.4680    0.1533 O.2       1 <0>         0.0000
     16 S1          0.9315    2.7897   -2.0939 S.3       1 <0>         0.0000
     17 H1         -3.3401    0.4015    0.0531 H         1 <0>         0.0000
     18 H2         -3.1583    1.8180    1.0927 H         1 <0>         0.0000
     19 H3         -0.2038   -1.3228    1.3840 H         1 <0>         0.0000
     20 H4         -1.5462   -1.5270    0.2419 H         1 <0>         0.0000
     21 H5         -3.5417    0.4436    3.1144 H         1 <0>         0.0000
     22 H6         -4.8716    0.1763    1.9927 H         1 <0>         0.0000
     23 H7         -1.9989   -2.8262    2.2892 H         1 <0>         0.0000
     24 H8         -1.7741   -1.3947    3.2887 H         1 <0>         0.0000
     25 H9         -1.1673    0.8431    2.1531 H         1 <0>         0.0000
     26 H10         3.6023   -0.3446   -4.1720 H         1 <0>         0.0000
     27 H11         2.1887   -0.3520   -5.2272 H         1 <0>         0.0000
     28 H12         3.3657    0.9687   -5.3388 H         1 <0>         0.0000
     29 H13         1.7763    4.1474   -4.7393 H         1 <0>         0.0000
     30 H14         3.1955    4.1644   -3.6857 H         1 <0>         0.0000
     31 H15         3.1589    3.1105   -5.1023 H         1 <0>         0.0000
     32 H16        -3.9335   -1.8758    1.3752 H         1 <0>         0.0000
     33 H17         0.0001   -0.4845   -0.7720 H         1 <0>         0.0000
@<TRIPOS>BOND
     1    1    2 2
     2    1   10 1
     3    1   12 1
     4    2   11 1
     5    2   16 1
     6    3   12 2
     7    3   14 1
     8    3   16 1
     9    4    9 1
    10    4   14 am
    11    4   15 2
    12    5    7 1
    13    5    9 1
    14    5   17 1
    15    5   18 1
    16    6    8 1
    17    6    9 1
    18    6   19 1
    19    6   20 1
    20    7   13 1
    21    7   21 1
    22    7   22 1
    23    8   13 1
    24    8   23 1
    25    8   24 1
    26    9   25 1
    27   10   26 1
    28   10   27 1
    29   10   28 1
    30   11   29 1
    31   11   30 1
    32   11   31 1
    33   13   32 1
    34   14   33 1
