@<TRIPOS>MOLECULE
*****
   44    46     0     0     0
SMALL
NO_CHARGES

@<TRIPOS>ATOM
      1 C1         -4.8473   -5.2083    2.0057 C.ar      1 <0>         0.0000
      2 C2         -5.5915   -4.2005    1.3870 C.ar      1 <0>         0.0000
      3 C3         -3.2151   -5.0839    0.2544 C.ar      1 <0>         0.0000
      4 C4         -2.5617   -2.1588   -3.0993 C.2       1 <0>         0.0000
      5 C5         -3.6486   -5.6739    1.4477 C.ar      1 <0>         0.0000
      6 C6         -5.1699   -3.6104    0.1889 C.ar      1 <0>         0.0000
      7 C7         -3.9612   -4.0741   -0.3514 C.ar      1 <0>         0.0000
      8 C8         -3.0957   -3.3506   -3.6883 C.2       1 <0>         0.0000
      9 C9         -2.8513   -2.3080   -1.7478 C.2       1 <0>         0.0000
     10 C10        -1.9640   -0.9766   -3.7301 C.2       1 <0>         0.0000
     11 C11         0.2007   -2.9281   -4.2780 C.3       1 <0>         0.0000
     12 C12         0.5214   -1.5407   -6.2218 C.3       1 <0>         0.0000
     13 C13         1.4632   -2.3146   -3.6703 C.3       1 <0>         0.0000
     14 C14         1.7795   -0.9623   -5.5744 C.3       1 <0>         0.0000
     15 C15        -2.8632   -6.7926    2.0915 C.3       1 <0>         0.0000
     16 C16        -5.9719   -2.5300   -0.4934 C.3       1 <0>         0.0000
     17 C17        -3.1486   -3.7183   -5.1370 C.3       1 <0>         0.0000
     18 N1         -3.6377   -4.1485   -2.7652 N.2       1 <0>         0.0000
     19 N2         -1.0870   -0.8725   -4.6710 N.2       1 <0>         0.0000
     20 N3         -3.4740   -3.5032   -1.5701 N.pl3     1 <0>         0.0000
     21 N4         -0.4581   -1.9866   -5.2132 N.pl3     1 <0>         0.0000
     22 O1          2.3814   -1.9091   -4.6861 O.3       1 <0>         0.0000
     23 Cl1        -2.4843   -1.2557   -0.4328 Cl        1 <0>         0.0000
     24 H1         -5.2079   -5.6422    2.9359 H         1 <0>         0.0000
     25 H2         -6.5224   -3.8685    1.8405 H         1 <0>         0.0000
     26 H3         -2.2908   -5.4052   -0.2188 H         1 <0>         0.0000
     27 H4         -2.3431   -0.0136   -3.3869 H         1 <0>         0.0000
     28 H5          0.4711   -3.8158   -4.8598 H         1 <0>         0.0000
     29 H6         -0.4906   -3.2399   -3.4965 H         1 <0>         0.0000
     30 H7          0.0386   -0.8001   -6.8623 H         1 <0>         0.0000
     31 H8          0.7860   -2.4116   -6.8312 H         1 <0>         0.0000
     32 H9          1.1965   -1.4547   -3.0376 H         1 <0>         0.0000
     33 H10         1.9890   -3.0504   -3.0550 H         1 <0>         0.0000
     34 H11         2.5358   -0.7235   -6.3275 H         1 <0>         0.0000
     35 H12         1.5218   -0.0443   -5.0261 H         1 <0>         0.0000
     36 H13        -3.1464   -7.7632    1.6670 H         1 <0>         0.0000
     37 H14        -1.7876   -6.6681    1.9345 H         1 <0>         0.0000
     38 H15        -3.0454   -6.8386    3.1690 H         1 <0>         0.0000
     39 H16        -5.4975   -1.5494   -0.3769 H         1 <0>         0.0000
     40 H17        -6.0616   -2.7235   -1.5664 H         1 <0>         0.0000
     41 H18        -6.9771   -2.4674   -0.0691 H         1 <0>         0.0000
     42 H19        -2.1443   -3.8015   -5.5620 H         1 <0>         0.0000
     43 H20        -3.6835   -4.6630   -5.2573 H         1 <0>         0.0000
     44 H21        -3.6641   -2.9415   -5.7116 H         1 <0>         0.0000
@<TRIPOS>BOND
     1    1    2 ar
     2    1    5 ar
     3    1   24 1
     4    2    6 ar
     5    2   25 1
     6    3    5 ar
     7    3    7 ar
     8    3   26 1
     9    4    8 1
    10    4    9 2
    11    4   10 1
    12    5   15 1
    13    6    7 ar
    14    6   16 1
    15    7   20 1
    16    8   17 1
    17    8   18 2
    18    9   20 1
    19    9   23 1
    20   10   19 2
    21   10   27 1
    22   11   13 1
    23   11   21 1
    24   11   28 1
    25   11   29 1
    26   12   14 1
    27   12   21 1
    28   12   30 1
    29   12   31 1
    30   13   22 1
    31   13   32 1
    32   13   33 1
    33   14   22 1
    34   14   34 1
    35   14   35 1
    36   15   36 1
    37   15   37 1
    38   15   38 1
    39   16   39 1
    40   16   40 1
    41   16   41 1
    42   17   42 1
    43   17   43 1
    44   17   44 1
    45   18   20 1
    46   19   21 1
