@<TRIPOS>MOLECULE
*****
   38    40     0     0     0
SMALL
NO_CHARGES

@<TRIPOS>ATOM
      1 C1         -4.6121    2.7429   -8.8990 C.ar      1 <0>         0.0000
      2 C2         -3.8956    2.6055   -7.7085 C.ar      1 <0>         0.0000
      3 C3         -3.9795    2.6161  -10.1381 C.ar      1 <0>         0.0000
      4 C4         -1.8714    2.1925   -8.9946 C.ar      1 <0>         0.0000
      5 C5         -0.9324    1.6309   -4.5770 C.2       1 <0>         0.0000
      6 C6         -2.5280    2.3167   -7.7643 C.ar      1 <0>         0.0000
      7 C7         -2.6086    2.3486  -10.1657 C.ar      1 <0>         0.0000
      8 C8         -0.0134    2.4167   -5.3410 C.2       1 <0>         0.0000
      9 C9         -2.0325    1.4977   -5.4197 C.2       1 <0>         0.0000
     10 C10        -0.6884    1.1206   -3.2370 C.2       1 <0>         0.0000
     11 C11        -0.2744    0.4321   -0.4930 C.3       1 <0>         0.0000
     12 C12        -2.5712   -0.3144   -0.6139 C.3       1 <0>         0.0000
     13 C13        -0.7508    1.7178    0.1907 C.3       1 <0>         0.0000
     14 C14        -2.9959    0.9773    0.0878 C.3       1 <0>         0.0000
     15 C15         1.3513    2.8832   -4.9356 C.3       1 <0>         0.0000
     16 N1         -0.5066    2.7325   -6.5346 N.2       1 <0>         0.0000
     17 N2         -1.5828    0.4517   -2.5901 N.2       1 <0>         0.0000
     18 N3         -1.7568    2.1758   -6.5800 N.pl3     1 <0>         0.0000
     19 N4         -1.3272   -0.1088   -1.3686 N.pl3     1 <0>         0.0000
     20 O1         -1.9493    1.4742    0.9291 O.3       1 <0>         0.0000
     21 Cl1        -1.7927    2.1956  -11.7130 Cl        1 <0>         0.0000
     22 Cl2        -3.4717    0.5841   -5.1928 Cl        1 <0>         0.0000
     23 H1         -5.6742    2.9674   -8.8620 H         1 <0>         0.0000
     24 H2         -4.3899    2.7370   -6.7534 H         1 <0>         0.0000
     25 H3         -4.5333    2.7300  -11.0642 H         1 <0>         0.0000
     26 H4         -0.8079    1.9873   -9.0207 H         1 <0>         0.0000
     27 H5          0.3043    1.3389   -2.8354 H         1 <0>         0.0000
     28 H6          0.6541    0.5823   -1.0478 H         1 <0>         0.0000
     29 H7         -0.0741   -0.3280    0.2687 H         1 <0>         0.0000
     30 H8         -2.3926   -1.0991    0.1292 H         1 <0>         0.0000
     31 H9         -3.3391   -0.6514   -1.3129 H         1 <0>         0.0000
     32 H10        -0.0117    2.0760    0.9127 H         1 <0>         0.0000
     33 H11        -0.9236    2.5070   -0.5561 H         1 <0>         0.0000
     34 H12        -3.2630    1.7344   -0.6652 H         1 <0>         0.0000
     35 H13        -3.8574    0.8093    0.7400 H         1 <0>         0.0000
     36 H14         2.0107    2.0380   -4.7087 H         1 <0>         0.0000
     37 H15         1.7973    3.4605   -5.7483 H         1 <0>         0.0000
     38 H16         1.3077    3.5181   -4.0438 H         1 <0>         0.0000
@<TRIPOS>BOND
     1    1    2 ar
     2    1    3 ar
     3    1   23 1
     4    2    6 ar
     5    2   24 1
     6    3    7 ar
     7    3   25 1
     8    4    6 ar
     9    4    7 ar
    10    4   26 1
    11    5    8 1
    12    5    9 2
    13    5   10 1
    14    6   18 1
    15    7   21 1
    16    8   15 1
    17    8   16 2
    18    9   18 1
    19    9   22 1
    20   10   17 2
    21   10   27 1
    22   11   13 1
    23   11   19 1
    24   11   28 1
    25   11   29 1
    26   12   14 1
    27   12   19 1
    28   12   30 1
    29   12   31 1
    30   13   20 1
    31   13   32 1
    32   13   33 1
    33   14   20 1
    34   14   34 1
    35   14   35 1
    36   15   36 1
    37   15   37 1
    38   15   38 1
    39   16   18 1
    40   17   19 1
