@<TRIPOS>MOLECULE
*****
   34    36     0     0     0
SMALL
NO_CHARGES

@<TRIPOS>ATOM
      1 C1          5.0758   -0.3995   10.8038 C.ar      1 <0>         0.0000
      2 C2          4.2970    0.2231    4.6111 C.ar      1 <0>         0.0000
      3 C3          5.5131   -1.3813    5.9591 C.ar      1 <0>         0.0000
      4 C4          5.4939    0.8262    4.2222 C.ar      1 <0>         0.0000
      5 C5          6.7063   -0.8232    5.5385 C.ar      1 <0>         0.0000
      6 C6          5.2261   -0.9612   12.0692 C.ar      1 <0>         0.0000
      7 C7          3.9651   -2.9779   11.4249 C.ar      1 <0>         0.0000
      8 C8          4.3676   -1.1225    9.8311 C.ar      1 <0>         0.0000
      9 C9          4.2842   -0.8470    5.5154 C.ar      1 <0>         0.0000
     10 C10         3.8208   -2.3948   10.1615 C.ar      1 <0>         0.0000
     11 C11         6.7085    0.3011    4.6872 C.ar      1 <0>         0.0000
     12 C12         4.6742   -2.2273   12.3595 C.ar      1 <0>         0.0000
     13 C13         3.3987   -1.8412    8.0569 C.2       1 <0>         0.0000
     14 C14         2.4391   -4.0641    8.8531 C.3       1 <0>         0.0000
     15 C15         8.0042    1.9221    3.4967 C.3       1 <0>         0.0000
     16 N1          4.0895   -0.8099    8.5162 N.2       1 <0>         0.0000
     17 N2          3.0121   -1.4124    5.7707 N.2       1 <0>         0.0000
     18 N3          2.6816   -1.9640    6.8575 N.2       1 <0>         0.0000
     19 N4          3.1859   -2.8272    9.0157 N.pl3     1 <0>         0.0000
     20 O1          7.9384    0.7859    4.3569 O.3       1 <0>         0.0000
     21 Br1         4.9127   -2.9435   14.1252 Br        1 <0>         0.0000
     22 H1          5.4971    0.5734   10.5690 H         1 <0>         0.0000
     23 H2          3.3475    0.5901    4.2321 H         1 <0>         0.0000
     24 H3          5.5318   -2.2470    6.6120 H         1 <0>         0.0000
     25 H4          5.4676    1.6749    3.5488 H         1 <0>         0.0000
     26 H5          7.6605   -1.2335    5.8551 H         1 <0>         0.0000
     27 H6          5.7705   -0.4295   12.8421 H         1 <0>         0.0000
     28 H7          3.5521   -3.9495   11.6738 H         1 <0>         0.0000
     29 H8          1.7354   -4.1813    9.6825 H         1 <0>         0.0000
     30 H9          1.8860   -4.0104    7.9156 H         1 <0>         0.0000
     31 H10         3.1128   -4.9271    8.8296 H         1 <0>         0.0000
     32 H11         9.0653    2.1442    3.3793 H         1 <0>         0.0000
     33 H12         7.4973    2.7865    3.9418 H         1 <0>         0.0000
     34 H13         7.5668    1.7034    2.5154 H         1 <0>         0.0000
@<TRIPOS>BOND
     1    1    6 ar
     2    1    8 ar
     3    1   22 1
     4    2    4 ar
     5    2    9 ar
     6    2   23 1
     7    3    5 ar
     8    3    9 ar
     9    3   24 1
    10    4   11 ar
    11    4   25 1
    12    5   11 ar
    13    5   26 1
    14    6   12 ar
    15    6   27 1
    16    7   10 ar
    17    7   12 ar
    18    7   28 1
    19    8   10 ar
    20    8   16 1
    21    9   17 1
    22   10   19 1
    23   11   20 1
    24   12   21 1
    25   13   16 2
    26   13   18 1
    27   13   19 1
    28   14   19 1
    29   14   29 1
    30   14   30 1
    31   14   31 1
    32   15   20 1
    33   15   32 1
    34   15   33 1
    35   15   34 1
    36   17   18 2
