@<TRIPOS>MOLECULE
*****
   21    22     0     0     0
SMALL
NO_CHARGES

@<TRIPOS>ATOM
      1 C1          0.9626   -0.0274    1.9254 C.ar      1 <0>         0.0000
      2 C2          0.8180   -0.3904    0.5956 C.ar      1 <0>         0.0000
      3 C3          4.1128   -1.4569    2.9332 C.2       1 <0>         0.0000
      4 C4          3.1091   -1.2409    1.9330 C.ar      1 <0>         0.0000
      5 C5          2.9369   -1.6383    0.5816 C.ar      1 <0>         0.0000
      6 C6          2.1216   -0.4620    2.5860 C.ar      1 <0>         0.0000
      7 C7          1.7862   -1.1860   -0.0656 C.ar      1 <0>         0.0000
      8 C8          4.0179   -2.4858   -0.0114 C.2       1 <0>         0.0000
      9 C9          4.5571   -4.2465   -1.4832 C.3       1 <0>         0.0000
     10 N1          3.7796   -0.8774    4.0772 N.2       1 <0>         0.0000
     11 N2          2.5750   -0.2793    3.8650 N.pl3     1 <0>         0.0000
     12 O1          5.1938   -2.3716    0.2900 O.2       1 <0>         0.0000
     13 O2          3.5527   -3.4183   -0.8608 O.3       1 <0>         0.0000
     14 Br1         1.4371   -1.5050   -1.9272 Br        1 <0>         0.0000
     15 H1          0.2071    0.5767    2.4199 H         1 <0>         0.0000
     16 H2         -0.0518   -0.0592    0.0388 H         1 <0>         0.0000
     17 H3          5.0488   -1.9886    2.8396 H         1 <0>         0.0000
     18 H4          4.0075   -4.9142   -2.1458 H         1 <0>         0.0000
     19 H5          5.1037   -4.8136   -0.7262 H         1 <0>         0.0000
     20 H6          5.2586   -3.6296   -2.0491 H         1 <0>         0.0000
     21 H7          2.1417    0.2327    4.6205 H         1 <0>         0.0000
@<TRIPOS>BOND
     1    1    2 ar
     2    1    6 ar
     3    1   15 1
     4    2    7 ar
     5    2   16 1
     6    3    4 1
     7    3   10 2
     8    3   17 1
     9    4    5 ar
    10    4    6 ar
    11    5    7 ar
    12    5    8 1
    13    6   11 1
    14    7   14 1
    15    8   12 2
    16    8   13 1
    17    9   13 1
    18    9   18 1
    19    9   19 1
    20    9   20 1
    21   10   11 1
    22   11   21 1
