@<TRIPOS>MOLECULE
*****
   22    22     0     0     0
SMALL
NO_CHARGES

@<TRIPOS>ATOM
      1 C1          2.0582   -1.1294   -0.1027 C.ar      1 <0>         0.0000
      2 C2          0.9423   -0.5831    0.5307 C.ar      1 <0>         0.0000
      3 C3          1.8764   -1.2020    2.6860 C.ar      1 <0>         0.0000
      4 C4          3.1016   -1.7042    0.6363 C.ar      1 <0>         0.0000
      5 C5          0.8603   -0.6256    1.9241 C.ar      1 <0>         0.0000
      6 C6          2.9954   -1.7320    2.0389 C.ar      1 <0>         0.0000
      7 C7          5.9830   -0.6461   -0.1369 C.2       1 <0>         0.0000
      8 C8          4.9760   -1.4968   -0.8644 C.3       1 <0>         0.0000
      9 N1          7.2230   -0.9144   -0.3792 N.2       1 <0>         0.0000
     10 N2          5.5315    0.3945    0.6509 N.pl3     1 <0>         0.0000
     11 O1          8.0578   -0.0154    0.3491 O.3       1 <0>         0.0000
     12 O2          4.1836   -2.2951    0.0424 O.3       1 <0>         0.0000
     13 Cl1        -0.5404    0.0502    2.7342 Cl        1 <0>         0.0000
     14 Cl2         4.2829   -2.4279    2.9903 Cl        1 <0>         0.0000
     15 H1          2.1159   -1.1248   -1.1869 H         1 <0>         0.0000
     16 H2          0.1396   -0.1425   -0.0513 H         1 <0>         0.0000
     17 H3          1.8090   -1.2337    3.7680 H         1 <0>         0.0000
     18 H4          5.5111   -2.2041   -1.4956 H         1 <0>         0.0000
     19 H5          4.3281   -0.8702   -1.4864 H         1 <0>         0.0000
     20 H6          6.2342    0.7668    1.2810 H         1 <0>         0.0000
     21 H7          4.6224    0.2702    1.0790 H         1 <0>         0.0000
     22 H8          8.9464   -0.3363    0.1299 H         1 <0>         0.0000
@<TRIPOS>BOND
     1    1    2 ar
     2    1    4 ar
     3    1   15 1
     4    2    5 ar
     5    2   16 1
     6    3    5 ar
     7    3    6 ar
     8    3   17 1
     9    4    6 ar
    10    4   12 1
    11    5   13 1
    12    6   14 1
    13    7    8 1
    14    7    9 2
    15    7   10 1
    16    8   12 1
    17    8   18 1
    18    8   19 1
    19    9   11 1
    20   10   20 1
    21   10   21 1
    22   11   22 1
