@<TRIPOS>MOLECULE
*****
   23    24     0     0     0
SMALL
NO_CHARGES

@<TRIPOS>ATOM
      1 C1         -2.7063   -3.6661   -0.7160 C.ar      1 <0>         0.0000
      2 C2         -3.8108   -4.4036   -0.2894 C.ar      1 <0>         0.0000
      3 C3         -2.7760   -4.6678    1.8882 C.ar      1 <0>         0.0000
      4 C4         -1.6209   -3.3866    0.1272 C.ar      1 <0>         0.0000
      5 C5         -1.7013   -3.8980    1.4363 C.ar      1 <0>         0.0000
      6 C6         -3.8239   -4.8988    1.0108 C.ar      1 <0>         0.0000
      7 C7         -0.9058   -1.3950   -2.3788 C.2       1 <0>         0.0000
      8 C8         -0.5809   -1.0516   -0.1304 C.3       1 <0>         0.0000
      9 C9         -0.4367   -2.5739   -0.3963 C.3       1 <0>         0.0000
     10 N1         -0.3433   -2.5398   -1.8438 N.am      1 <0>         0.0000
     11 N2         -0.6417   -3.6378    2.4280 N.pl3     1 <0>         0.0000
     12 O1          0.0413   -2.6137    2.2855 O.3       1 <0>         0.0000
     13 O2         -1.1846   -1.1778   -3.5358 O.2       1 <0>         0.0000
     14 O3         -0.5070   -4.4425    3.3518 O.2       1 <0>         0.0000
     15 O4         -1.1133   -0.5074   -1.3560 O.3       1 <0>         0.0000
     16 F1         -4.8823   -5.6229    1.4323 F         1 <0>         0.0000
     17 H1         -2.6940   -3.2947   -1.7349 H         1 <0>         0.0000
     18 H2         -4.6494   -4.5984   -0.9507 H         1 <0>         0.0000
     19 H3         -2.7894   -5.0627    2.8971 H         1 <0>         0.0000
     20 H4         -1.2715   -0.8199    0.6780 H         1 <0>         0.0000
     21 H5          0.3926   -0.5967    0.0684 H         1 <0>         0.0000
     22 H6          0.4910   -2.9406    0.0403 H         1 <0>         0.0000
     23 H7         -0.3138   -3.3714   -2.4187 H         1 <0>         0.0000
@<TRIPOS>BOND
     1    1    2 ar
     2    1    4 ar
     3    1   17 1
     4    2    6 ar
     5    2   18 1
     6    3    5 ar
     7    3    6 ar
     8    3   19 1
     9    4    5 ar
    10    4    9 1
    11    5   11 1
    12    6   16 1
    13    7   10 am
    14    7   13 2
    15    7   15 1
    16    8    9 1
    17    8   15 1
    18    8   20 1
    19    8   21 1
    20    9   10 1
    21    9   22 1
    22   10   23 1
    23   11   12 1
    24   11   14 2
