@<TRIPOS>MOLECULE
*****
   21    21     0     0     0
SMALL
NO_CHARGES

@<TRIPOS>ATOM
      1 C1          1.4429   -1.3197   -0.1987 C.ar      1 <0>         0.0000
      2 C2          2.6968   -1.4083    0.4130 C.ar      1 <0>         0.0000
      3 C3          0.3039   -0.9913    0.5421 C.ar      1 <0>         0.0000
      4 C4          1.6807   -0.8064    2.5623 C.ar      1 <0>         0.0000
      5 C5          2.7836   -1.1503    1.7742 C.ar      1 <0>         0.0000
      6 C6          0.4483   -0.7440    1.9010 C.ar      1 <0>         0.0000
      7 C7          1.7998   -0.5154    4.0210 C.3       1 <0>         0.0000
      8 C8          3.6552    1.7513    3.9435 C.3       1 <0>         0.0000
      9 O1          1.7947    1.4292    5.8640 O.2       1 <0>         0.0000
     10 O2          1.0120    2.0343    3.4941 O.2       1 <0>         0.0000
     11 F1          3.9911   -1.2382    2.3833 F         1 <0>         0.0000
     12 F2         -0.6472   -0.4515    2.6346 F         1 <0>         0.0000
     13 F3          4.5172    0.9270    4.5585 F         1 <0>         0.0000
     14 F4          3.8280    1.6621    2.6185 F         1 <0>         0.0000
     15 F5          3.8799    3.0052    4.3378 F         1 <0>         0.0000
     16 S1          1.8718    1.2867    4.4095 S.o2      1 <0>         0.0000
     17 H1          1.3519   -1.5128   -1.2633 H         1 <0>         0.0000
     18 H2          3.5916   -1.6684   -0.1424 H         1 <0>         0.0000
     19 H3         -0.6787   -0.9248    0.0873 H         1 <0>         0.0000
     20 H4          2.6825   -0.9604    4.4818 H         1 <0>         0.0000
     21 H5          0.9108   -0.8197    4.5796 H         1 <0>         0.0000
@<TRIPOS>BOND
     1    1    3 ar
     2    1    2 ar
     3    1   17 1
     4    2    5 ar
     5    2   18 1
     6    3    6 ar
     7    3   19 1
     8    4    6 ar
     9    4    5 ar
    10    4    7 1
    11    5   11 1
    12    6   12 1
    13    7   16 1
    14    7   20 1
    15    7   21 1
    16    8   13 1
    17    8   14 1
    18    8   15 1
    19    8   16 1
    20    9   16 2
    21   10   16 2
