@<TRIPOS>MOLECULE
*****
   25    26     0     0     0
SMALL
NO_CHARGES

@<TRIPOS>ATOM
      1 C1         -1.8453   -0.7705   -5.0892 C.ar      1 <0>         0.0000
      2 C2         -4.1705   -0.5895   -5.8028 C.ar      1 <0>         0.0000
      3 C3         -2.0894    0.0866   -4.0048 C.ar      1 <0>         0.0000
      4 C4         -4.3968    0.2561   -4.7242 C.ar      1 <0>         0.0000
      5 C5         -3.3858    0.5887   -3.8229 C.ar      1 <0>         0.0000
      6 C6         -2.8793   -1.0985   -5.9600 C.ar      1 <0>         0.0000
      7 C7          1.3953    3.2364   -0.6116 C.3       1 <0>         0.0000
      8 C8          0.9416    1.9265    0.0234 C.3       1 <0>         0.0000
      9 C9          0.5702    1.8144   -2.2332 C.3       1 <0>         0.0000
     10 C10        -0.8959    1.6603   -2.6211 C.3       1 <0>         0.0000
     11 O1          0.7759    3.1876   -1.9051 O.3       1 <0>         0.0000
     12 O2          0.9255    1.0372   -1.0997 O.3       1 <0>         0.0000
     13 O3         -1.0502    0.3348   -3.1624 O.3       1 <0>         0.0000
     14 F1         -5.6282    0.7647   -4.5178 F         1 <0>         0.0000
     15 F2         -3.6865    1.3798   -2.7688 F         1 <0>         0.0000
     16 Br1        -2.5202   -2.2692   -7.4316 Br        1 <0>         0.0000
     17 H1         -0.8422   -1.1599   -5.2208 H         1 <0>         0.0000
     18 H2         -4.9810   -0.8330   -6.4799 H         1 <0>         0.0000
     19 H3          1.0385    4.1305   -0.0955 H         1 <0>         0.0000
     20 H4          2.4870    3.2768   -0.7155 H         1 <0>         0.0000
     21 H5          1.6346    1.5228    0.7641 H         1 <0>         0.0000
     22 H6         -0.0591    2.0176    0.4668 H         1 <0>         0.0000
     23 H7          1.2209    1.5022   -3.0593 H         1 <0>         0.0000
     24 H8         -1.1477    2.4119   -3.3764 H         1 <0>         0.0000
     25 H9         -1.5330    1.7987   -1.7446 H         1 <0>         0.0000
@<TRIPOS>BOND
     1    1    3 ar
     2    1    6 ar
     3    1   17 1
     4    2    4 ar
     5    2    6 ar
     6    2   18 1
     7    3    5 ar
     8    3   13 1
     9    4    5 ar
    10    4   14 1
    11    5   15 1
    12    6   16 1
    13    7    8 1
    14    7   11 1
    15    7   19 1
    16    7   20 1
    17    8   12 1
    18    8   21 1
    19    8   22 1
    20    9   10 1
    21    9   12 1
    22    9   11 1
    23    9   23 1
    24   10   13 1
    25   10   24 1
    26   10   25 1
