@<TRIPOS>MOLECULE
*****
   28    30     0     0     0
SMALL
NO_CHARGES

@<TRIPOS>ATOM
      1 C1          1.2465    1.1230   -2.6186 C.ar      1 <0>         0.0000
      2 C2         -0.4512    2.6674    3.2257 C.ar      1 <0>         0.0000
      3 C3         -0.0713    2.5655    1.8717 C.ar      1 <0>         0.0000
      4 C4          1.8760    1.0304   -3.8559 C.ar      1 <0>         0.0000
      5 C5         -0.9843    0.2922    1.7187 C.ar      1 <0>         0.0000
      6 C6         -0.2923    1.1899   -4.9482 C.ar      1 <0>         0.0000
      7 C7         -0.1504    1.2486   -2.5032 C.ar      1 <0>         0.0000
      8 C8         -1.0939    1.5779    3.7807 C.ar      1 <0>         0.0000
      9 C9         -1.3532    0.4205    3.0434 C.ar      1 <0>         0.0000
     10 C10        -0.3367    1.4047    1.1542 C.ar      1 <0>         0.0000
     11 C11        -0.8928    1.2790   -3.6953 C.ar      1 <0>         0.0000
     12 C12         1.0944    1.0650   -5.0149 C.ar      1 <0>         0.0000
     13 C13        -0.8149    1.3402   -1.1740 C.2       1 <0>         0.0000
     14 C14        -2.3011    0.1918    5.0558 C.3       1 <0>         0.0000
     15 O1         -2.0057    1.4089   -0.9733 O.2       1 <0>         0.0000
     16 O2         -1.5358    1.4072    5.0770 O.3       1 <0>         0.0000
     17 O3         -1.9674   -0.5138    3.8476 O.3       1 <0>         0.0000
     18 O4          0.1257    1.3329   -0.1688 O.3       1 <0>         0.0000
     19 F1         -2.2292    1.3994   -3.6715 F         1 <0>         0.0000
     20 Cl1         1.8647    0.9501   -6.5800 Cl        1 <0>         0.0000
     21 H1          1.8397    1.0972   -1.7124 H         1 <0>         0.0000
     22 H2         -0.2476    3.5616    3.8054 H         1 <0>         0.0000
     23 H3          0.4300    3.3905    1.3761 H         1 <0>         0.0000
     24 H4          2.9539    0.9326   -3.9258 H         1 <0>         0.0000
     25 H5         -1.1878   -0.6029    1.1421 H         1 <0>         0.0000
     26 H6         -0.9081    1.2188   -5.8403 H         1 <0>         0.0000
     27 H7         -2.0313   -0.4213    5.9178 H         1 <0>         0.0000
     28 H8         -3.3722    0.4355    5.0477 H         1 <0>         0.0000
@<TRIPOS>BOND
     1    1    4 ar
     2    1    7 ar
     3    1   21 1
     4    2    3 ar
     5    2    8 ar
     6    2   22 1
     7    3   10 ar
     8    3   23 1
     9    4   12 ar
    10    4   24 1
    11    5    9 ar
    12    5   10 ar
    13    5   25 1
    14    6   11 ar
    15    6   12 ar
    16    6   26 1
    17    7   11 ar
    18    7   13 1
    19    8    9 ar
    20    8   16 1
    21    9   17 1
    22   10   18 1
    23   11   19 1
    24   12   20 1
    25   13   15 2
    26   13   18 1
    27   14   16 1
    28   14   17 1
    29   14   27 1
    30   14   28 1
