@<TRIPOS>MOLECULE
*****
   42    45     0     0     0
SMALL
NO_CHARGES

@<TRIPOS>ATOM
      1 C1         -2.4426   -0.4522   -0.0367 C.ar      1 <0>         0.0000
      2 C2         -1.8582   -1.0951    1.0597 C.ar      1 <0>         0.0000
      3 C3         -3.3167   -1.1567   -0.8784 C.ar      1 <0>         0.0000
      4 C4         -2.1291   -2.4396    1.3509 C.ar      1 <0>         0.0000
      5 C5         -1.6843   -7.6727    0.1131 C.ar      1 <0>         0.0000
      6 C6         -3.8923   -8.2919   -0.6270 C.ar      1 <0>         0.0000
      7 C7         -3.5947   -2.4898   -0.6013 C.ar      1 <0>         0.0000
      8 C8         -3.0718   -7.6060    0.2739 C.ar      1 <0>         0.0000
      9 C9         -3.0103   -3.1223    0.5071 C.ar      1 <0>         0.0000
     10 C10        -1.1140   -8.4138   -0.9226 C.ar      1 <0>         0.0000
     11 C11        -1.9337   -9.1407   -1.8182 C.ar      1 <0>         0.0000
     12 C12        -3.3234   -9.0490   -1.6515 C.ar      1 <0>         0.0000
     13 C13        -3.0410   -5.3974    1.4975 C.2       1 <0>         0.0000
     14 C14        -4.4426   -3.4784   -1.3691 C.3       1 <0>         0.0000
     15 C15         0.9989   -9.8394   -2.8532 C.3       1 <0>         0.0000
     16 C16        -4.5472   -4.6797   -0.4040 C.3       1 <0>         0.0000
     17 C17         0.8361   -8.4183   -2.3144 C.3       1 <0>         0.0000
     18 C18        -0.2572  -10.6632   -2.5707 C.3       1 <0>         0.0000
     19 C19        -3.6745   -6.7845    1.4003 C.3       1 <0>         0.0000
     20 N1         -3.4633   -4.4640    0.5853 N.am      1 <0>         0.0000
     21 O1         -2.1679   -5.1641    2.3355 O.2       1 <0>         0.0000
     22 O2          0.2599   -8.4175   -0.9939 O.3       1 <0>         0.0000
     23 O3         -1.4518   -9.9050   -2.8481 O.3       1 <0>         0.0000
     24 Cl1        -4.3709   -9.9222   -2.7516 Cl        1 <0>         0.0000
     25 H1         -2.2183    0.5918   -0.2381 H         1 <0>         0.0000
     26 H2         -1.1792   -0.5448    1.7061 H         1 <0>         0.0000
     27 H3         -3.7692   -0.6671   -1.7378 H         1 <0>         0.0000
     28 H4         -1.6773   -2.9404    2.1959 H         1 <0>         0.0000
     29 H5         -1.0193   -7.1295    0.7782 H         1 <0>         0.0000
     30 H6         -4.9736   -8.2557   -0.5342 H         1 <0>         0.0000
     31 H7         -5.4281   -3.0864   -1.6340 H         1 <0>         0.0000
     32 H8         -3.9420   -3.7691   -2.3000 H         1 <0>         0.0000
     33 H9          1.1927   -9.7854   -3.9304 H         1 <0>         0.0000
     34 H10         1.8567  -10.3354   -2.3855 H         1 <0>         0.0000
     35 H11        -5.5150   -4.6850    0.1116 H         1 <0>         0.0000
     36 H12        -4.4173   -5.6336   -0.9141 H         1 <0>         0.0000
     37 H13         1.8026   -7.9197   -2.2110 H         1 <0>         0.0000
     38 H14         0.2093   -7.8179   -2.9813 H         1 <0>         0.0000
     39 H15        -0.3135  -11.5414   -3.2177 H         1 <0>         0.0000
     40 H16        -0.2790  -10.9995   -1.5296 H         1 <0>         0.0000
     41 H17        -4.7594   -6.7218    1.2757 H         1 <0>         0.0000
     42 H18        -3.4769   -7.2626    2.3631 H         1 <0>         0.0000
@<TRIPOS>BOND
     1    1    2 ar
     2    1    3 ar
     3    1   25 1
     4    2    4 ar
     5    2   26 1
     6    3    7 ar
     7    3   27 1
     8    4    9 ar
     9    4   28 1
    10    5    8 ar
    11    5   10 ar
    12    5   29 1
    13    6    8 ar
    14    6   12 ar
    15    6   30 1
    16    7    9 ar
    17    7   14 1
    18    8   19 1
    19    9   20 1
    20   10   11 ar
    21   10   22 1
    22   11   12 ar
    23   11   23 1
    24   12   24 1
    25   13   19 1
    26   13   20 am
    27   13   21 2
    28   14   16 1
    29   14   31 1
    30   14   32 1
    31   15   17 1
    32   15   18 1
    33   15   33 1
    34   15   34 1
    35   16   20 1
    36   16   35 1
    37   16   36 1
    38   17   22 1
    39   17   37 1
    40   17   38 1
    41   18   23 1
    42   18   39 1
    43   18   40 1
    44   19   41 1
    45   19   42 1
