@<TRIPOS>MOLECULE
*****
   38    40     0     0     0
SMALL
NO_CHARGES

@<TRIPOS>ATOM
      1 C1         -3.5215   -5.6509   -0.8835 C.2       1 <0>         0.0000
      2 C2         -0.4036    0.0487   -0.8572 C.2       1 <0>         0.0000
      3 C3         -0.7289   -0.6451    0.3033 C.2       1 <0>         0.0000
      4 C4         -4.4527   -3.6495   -0.6574 C.2       1 <0>         0.0000
      5 C5         -3.4772   -3.3064   -1.5662 C.2       1 <0>         0.0000
      6 C6         -2.0400   -1.2534   -1.4034 C.2       1 <0>         0.0000
      7 C7          0.6726    1.0366   -1.1316 C.2       1 <0>         0.0000
      8 C8         -0.2466   -0.6543    1.7231 C.3       1 <0>         0.0000
      9 C9          1.0338    1.4939    1.3608 C.3       1 <0>         0.0000
     10 C10         1.0812    0.0807    1.9924 C.3       1 <0>         0.0000
     11 C11        -5.4810   -2.7337   -0.0551 C.3       1 <0>         0.0000
     12 C12         2.2721   -0.7261    1.4526 C.3       1 <0>         0.0000
     13 C13         1.2220    0.2530    3.5154 C.3       1 <0>         0.0000
     14 C14        -3.1487   -1.9547   -2.1394 C.3       1 <0>         0.0000
     15 N1         -4.4648   -4.9849   -0.2824 N.2       1 <0>         0.0000
     16 N2         -1.2291   -0.3526   -1.9015 N.2       1 <0>         0.0000
     17 N3         -1.7776   -1.4653   -0.0683 N.pl3     1 <0>         0.0000
     18 N4          1.3570    1.5607   -0.0562 N.am      1 <0>         0.0000
     19 O1          0.9792    1.3614   -2.2778 O.2       1 <0>         0.0000
     20 S1         -2.5248   -4.7149   -1.9623 S.3       1 <0>         0.0000
     21 H1         -3.3477   -6.7131   -0.7448 H         1 <0>         0.0000
     22 H2         -1.0270   -0.2058    2.3543 H         1 <0>         0.0000
     23 H3         -0.1459   -1.6943    2.0614 H         1 <0>         0.0000
     24 H4          0.0492    1.9408    1.5613 H         1 <0>         0.0000
     25 H5          1.7724    2.1217    1.8672 H         1 <0>         0.0000
     26 H6         -6.4881   -3.0507   -0.3452 H         1 <0>         0.0000
     27 H7         -5.4331   -2.7752    1.0380 H         1 <0>         0.0000
     28 H8         -5.3425   -1.6967   -0.3672 H         1 <0>         0.0000
     29 H9          3.2074   -0.1701    1.5787 H         1 <0>         0.0000
     30 H10         2.1636   -0.9546    0.3902 H         1 <0>         0.0000
     31 H11         2.3670   -1.6717    1.9982 H         1 <0>         0.0000
     32 H12         2.2009    0.6720    3.7722 H         1 <0>         0.0000
     33 H13         1.1258   -0.7092    4.0304 H         1 <0>         0.0000
     34 H14         0.4523    0.9240    3.9150 H         1 <0>         0.0000
     35 H15        -2.8516   -2.0242   -3.1888 H         1 <0>         0.0000
     36 H16        -4.0500   -1.3323   -2.1198 H         1 <0>         0.0000
     37 H17        -2.2321   -2.1554    0.5185 H         1 <0>         0.0000
     38 H18         2.0624    2.2261   -0.3474 H         1 <0>         0.0000
@<TRIPOS>BOND
     1    1   15 2
     2    1   20 1
     3    1   21 1
     4    2    3 2
     5    2    7 1
     6    2   16 1
     7    3    8 1
     8    3   17 1
     9    4    5 2
    10    4   11 1
    11    4   15 1
    12    5   14 1
    13    5   20 1
    14    6   14 1
    15    6   16 2
    16    6   17 1
    17    7   18 am
    18    7   19 2
    19    8   10 1
    20    8   22 1
    21    8   23 1
    22    9   10 1
    23    9   18 1
    24    9   24 1
    25    9   25 1
    26   10   12 1
    27   10   13 1
    28   11   26 1
    29   11   27 1
    30   11   28 1
    31   12   29 1
    32   12   30 1
    33   12   31 1
    34   13   32 1
    35   13   33 1
    36   13   34 1
    37   14   35 1
    38   14   36 1
    39   17   37 1
    40   18   38 1
