@<TRIPOS>MOLECULE
*****
   37    38     0     0     0
SMALL
NO_CHARGES

@<TRIPOS>ATOM
      1 C1          0.4268   -0.3571   -4.7028 C.ar      1 <0>         0.0000
      2 C2          0.8202    0.8978   -5.1392 C.ar      1 <0>         0.0000
      3 C3          0.8553    0.2341   -2.5262 C.ar      1 <0>         0.0000
      4 C4          1.4311    1.4679   -3.0001 C.ar      1 <0>         0.0000
      5 C5          0.2155   -1.3749   -0.7915 C.3       1 <0>         0.0000
      6 C6          0.3428    0.9664   -0.1968 C.3       1 <0>         0.0000
      7 C7          0.0629   -1.2481    0.7285 C.3       1 <0>         0.0000
      8 C8         -0.4707    0.2000    0.8571 C.3       1 <0>         0.0000
      9 C9          1.3849   -1.4964    1.4661 C.3       1 <0>         0.0000
     10 C10        -0.3906    0.8246    2.2480 C.3       1 <0>         0.0000
     11 C11         3.2391    1.7837   -1.4215 C.3       1 <0>         0.0000
     12 C12         2.3410    3.6868   -2.6393 C.3       1 <0>         0.0000
     13 N1          0.4291   -0.6829   -3.3973 N.ar      1 <0>         0.0000
     14 N2          1.3523    1.7947   -4.2846 N.ar      1 <0>         0.0000
     15 N3          0.7516   -0.0595   -1.1782 N.pl3     1 <0>         0.0000
     16 N4          2.0738    2.3504   -2.1113 N.pl3     1 <0>         0.0000
     17 O1         -1.8347    0.2462    0.3842 O.3       1 <0>         0.0000
     18 H1          0.0753   -1.1169   -5.3979 H         1 <0>         0.0000
     19 H2          0.7510    1.1898   -6.1846 H         1 <0>         0.0000
     20 H3          0.9065   -2.1663   -1.0939 H         1 <0>         0.0000
     21 H4         -0.7472   -1.5639   -1.2776 H         1 <0>         0.0000
     22 H5         -0.2771    1.7424   -0.6510 H         1 <0>         0.0000
     23 H6          1.2113    1.4510    0.2581 H         1 <0>         0.0000
     24 H7         -0.6897   -1.9548    1.0998 H         1 <0>         0.0000
     25 H8          2.1606   -0.7936    1.1441 H         1 <0>         0.0000
     26 H9          1.7491   -2.5073    1.2561 H         1 <0>         0.0000
     27 H10         1.2707   -1.4036    2.5502 H         1 <0>         0.0000
     28 H11        -0.9699    0.2376    2.9711 H         1 <0>         0.0000
     29 H12        -0.8090    1.8353    2.2212 H         1 <0>         0.0000
     30 H13         0.6383    0.8862    2.6121 H         1 <0>         0.0000
     31 H14         3.5129    2.4313   -0.5825 H         1 <0>         0.0000
     32 H15         4.1077    1.7007   -2.0948 H         1 <0>         0.0000
     33 H16         3.0066    0.7894   -1.0364 H         1 <0>         0.0000
     34 H17         2.6773    4.3191   -1.8116 H         1 <0>         0.0000
     35 H18         1.4272    4.1075   -3.0620 H         1 <0>         0.0000
     36 H19         3.1093    3.6884   -3.4264 H         1 <0>         0.0000
     37 H20        -2.3675   -0.3316    0.9543 H         1 <0>         0.0000
@<TRIPOS>BOND
     1    1    2 ar
     2    1   13 ar
     3    1   18 1
     4    2   14 ar
     5    2   19 1
     6    3    4 ar
     7    3   13 ar
     8    3   15 1
     9    4   14 ar
    10    4   16 1
    11    5    7 1
    12    5   15 1
    13    5   20 1
    14    5   21 1
    15    6    8 1
    16    6   15 1
    17    6   22 1
    18    6   23 1
    19    7    8 1
    20    7    9 1
    21    7   24 1
    22    8   10 1
    23    8   17 1
    24    9   25 1
    25    9   26 1
    26    9   27 1
    27   10   28 1
    28   10   29 1
    29   10   30 1
    30   11   16 1
    31   11   31 1
    32   11   32 1
    33   11   33 1
    34   12   16 1
    35   12   34 1
    36   12   35 1
    37   12   36 1
    38   17   37 1
