@<TRIPOS>MOLECULE
*****
   42    45     0     0     0
SMALL
NO_CHARGES

@<TRIPOS>ATOM
      1 C1          1.1113   -1.6410   -2.3915 C.ar      1 <0>         0.0000
      2 C2          0.4850   -1.4071   -1.1626 C.ar      1 <0>         0.0000
      3 C3          1.0165   -2.9030   -2.9973 C.ar      1 <0>         0.0000
      4 C4         -0.2498   -2.4084   -0.5118 C.ar      1 <0>         0.0000
      5 C5         -2.8742   -6.2830    3.1559 C.ar      1 <0>         0.0000
      6 C6         -4.7527   -6.3349    1.6521 C.ar      1 <0>         0.0000
      7 C7          0.2905   -3.9043   -2.3636 C.ar      1 <0>         0.0000
      8 C8         -3.3696   -6.3156    1.8503 C.ar      1 <0>         0.0000
      9 C9         -0.3411   -3.6564   -1.1350 C.ar      1 <0>         0.0000
     10 C10        -3.7331   -6.2779    4.2542 C.ar      1 <0>         0.0000
     11 C11        -5.1337   -6.3349    4.0657 C.ar      1 <0>         0.0000
     12 C12        -5.6148   -6.3495    2.7484 C.ar      1 <0>         0.0000
     13 C13        -1.7200   -4.9525    0.4754 C.2       1 <0>         0.0000
     14 C14         0.0799   -5.3457   -2.7680 C.3       1 <0>         0.0000
     15 C15        -4.8737   -6.2611    7.2409 C.3       1 <0>         0.0000
     16 C16        -1.0200   -5.8276   -1.7961 C.3       1 <0>         0.0000
     17 C17        -3.8151   -5.4466    6.4966 C.3       1 <0>         0.0000
     18 C18        -5.6813   -7.1086    6.2581 C.3       1 <0>         0.0000
     19 C19        -2.4340   -6.3000    0.6677 C.3       1 <0>         0.0000
     20 N1         -1.0301   -4.8213   -0.7077 N.am      1 <0>         0.0000
     21 O1         -1.7429   -4.0698    1.3289 O.2       1 <0>         0.0000
     22 O2         -3.1454   -6.2428    5.5003 O.3       1 <0>         0.0000
     23 O3         -6.0456   -6.3496    5.0893 O.3       1 <0>         0.0000
     24 Cl1        -7.3454   -6.4118    2.4758 Cl        1 <0>         0.0000
     25 H1          1.6720   -0.8465   -2.8763 H         1 <0>         0.0000
     26 H2          0.5638   -0.4281   -0.6971 H         1 <0>         0.0000
     27 H3          1.5059   -3.0960   -3.9493 H         1 <0>         0.0000
     28 H4         -0.7338   -2.2311    0.4385 H         1 <0>         0.0000
     29 H5         -1.8079   -6.2189    3.3487 H         1 <0>         0.0000
     30 H6         -5.1723   -6.3454    0.6507 H         1 <0>         0.0000
     31 H7         -0.2259   -5.4603   -3.8114 H         1 <0>         0.0000
     32 H8          1.0033   -5.9205   -2.6302 H         1 <0>         0.0000
     33 H9         -4.4061   -6.9267    7.9754 H         1 <0>         0.0000
     34 H10        -5.5283   -5.5718    7.7861 H         1 <0>         0.0000
     35 H11        -1.9987   -5.8447   -2.2905 H         1 <0>         0.0000
     36 H12        -0.8181   -6.8247   -1.4019 H         1 <0>         0.0000
     37 H13        -4.2623   -4.5706    6.0166 H         1 <0>         0.0000
     38 H14        -3.0299   -5.1027    7.1741 H         1 <0>         0.0000
     39 H15        -5.1170   -7.9946    5.9510 H         1 <0>         0.0000
     40 H16        -6.6260   -7.4370    6.6974 H         1 <0>         0.0000
     41 H17        -1.6607   -7.0701    0.7864 H         1 <0>         0.0000
     42 H18        -2.9825   -6.5599   -0.2425 H         1 <0>         0.0000
@<TRIPOS>BOND
     1    1    2 ar
     2    1    3 ar
     3    1   25 1
     4    2    4 ar
     5    2   26 1
     6    3    7 ar
     7    3   27 1
     8    4    9 ar
     9    4   28 1
    10    5    8 ar
    11    5   10 ar
    12    5   29 1
    13    6    8 ar
    14    6   12 ar
    15    6   30 1
    16    7    9 ar
    17    7   14 1
    18    8   19 1
    19    9   20 1
    20   10   11 ar
    21   10   22 1
    22   11   12 ar
    23   11   23 1
    24   12   24 1
    25   13   19 1
    26   13   20 am
    27   13   21 2
    28   14   16 1
    29   14   31 1
    30   14   32 1
    31   15   17 1
    32   15   18 1
    33   15   33 1
    34   15   34 1
    35   16   20 1
    36   16   35 1
    37   16   36 1
    38   17   22 1
    39   17   37 1
    40   17   38 1
    41   18   23 1
    42   18   39 1
    43   18   40 1
    44   19   41 1
    45   19   42 1
