@<TRIPOS>MOLECULE
*****
   24    26     0     0     0
SMALL
NO_CHARGES

@<TRIPOS>ATOM
      1 C1         -0.1100   -2.1367    2.4170 C.ar      1 <0>         0.0000
      2 C2          1.0171   -1.6771    3.0939 C.ar      1 <0>         0.0000
      3 C3          6.4551    0.7684    6.2203 C.2       1 <0>         0.0000
      4 C4         -0.6774   -1.3046    1.4497 C.ar      1 <0>         0.0000
      5 C5          7.2384    0.2248    7.2004 C.2       1 <0>         0.0000
      6 C6          5.3808   -1.2857    6.5373 C.2       1 <0>         0.0000
      7 C7          1.5495   -0.4137    2.7973 C.ar      1 <0>         0.0000
      8 C8          5.3792   -0.1021    5.8336 C.2       1 <0>         0.0000
      9 C9          0.8882    0.3393    1.7976 C.ar      1 <0>         0.0000
     10 C10         4.3870    0.2157    4.8123 C.2       1 <0>         0.0000
     11 C11         2.7314    0.0348    3.5268 C.2       1 <0>         0.0000
     12 N1         -0.1906   -0.0942    1.1459 N.ar      1 <0>         0.0000
     13 N2          3.3644   -0.6399    4.4560 N.2       1 <0>         0.0000
     14 N3          4.3934    1.3554    4.1467 N.2       1 <0>         0.0000
     15 O1          3.2866    1.2393    3.2845 O.3       1 <0>         0.0000
     16 O2          1.3478    1.5634    1.4629 O.3       1 <0>         0.0000
     17 S1          6.6814   -1.3538    7.6695 S.3       1 <0>         0.0000
     18 H1         -0.5391   -3.1102    2.6296 H         1 <0>         0.0000
     19 H2          1.5044   -2.2760    3.8565 H         1 <0>         0.0000
     20 H3          6.6214    1.7451    5.7803 H         1 <0>         0.0000
     21 H4         -1.5586   -1.6160    0.8921 H         1 <0>         0.0000
     22 H5          8.1100    0.6553    7.6765 H         1 <0>         0.0000
     23 H6          4.6821   -2.1053    6.4369 H         1 <0>         0.0000
     24 H7          0.7478    1.8903    0.7658 H         1 <0>         0.0000
@<TRIPOS>BOND
     1    1    2 ar
     2    1    4 ar
     3    1   18 1
     4    2    7 ar
     5    2   19 1
     6    3    5 2
     7    3    8 1
     8    3   20 1
     9    4   12 ar
    10    4   21 1
    11    5   17 1
    12    5   22 1
    13    6    8 2
    14    6   17 1
    15    6   23 1
    16    7    9 ar
    17    7   11 1
    18    8   10 1
    19    9   12 ar
    20    9   16 1
    21   10   13 1
    22   10   14 2
    23   11   13 2
    24   11   15 1
    25   14   15 1
    26   16   24 1
