@<TRIPOS>MOLECULE
*****
   42    45     0     0     0
SMALL
NO_CHARGES

@<TRIPOS>ATOM
      1 C1         -3.4888   -9.9926   -0.2006 C.ar      1 <0>         0.0000
      2 C2         -2.5747   -9.2477    0.5494 C.ar      1 <0>         0.0000
      3 C3         -4.4850   -9.3356   -0.9394 C.ar      1 <0>         0.0000
      4 C4         -2.6195   -7.8462    0.5710 C.ar      1 <0>         0.0000
      5 C5         -2.2765   -4.2292    2.6786 C.ar      1 <0>         0.0000
      6 C6         -0.3337   -5.6013    2.2975 C.ar      1 <0>         0.0000
      7 C7         -4.5357   -7.9475   -0.9298 C.ar      1 <0>         0.0000
      8 C8         -1.4270   -4.8905    1.7890 C.ar      1 <0>         0.0000
      9 C9         -3.5925   -7.2028   -0.1980 C.ar      1 <0>         0.0000
     10 C10        -2.0502   -4.2713    4.0565 C.ar      1 <0>         0.0000
     11 C11        -0.9294   -4.9562    4.5783 C.ar      1 <0>         0.0000
     12 C12        -0.0929   -5.6234    3.6701 C.ar      1 <0>         0.0000
     13 C13        -3.1228   -4.6974   -0.1014 C.2       1 <0>         0.0000
     14 C14        -5.4962   -7.0088   -1.6255 C.3       1 <0>         0.0000
     15 C15        -2.2807   -3.7579    7.2035 C.3       1 <0>         0.0000
     16 C16        -5.2328   -5.6644   -0.9175 C.3       1 <0>         0.0000
     17 C17        -3.2675   -4.1887    6.1187 C.3       1 <0>         0.0000
     18 C18        -0.8476   -3.8224    6.6755 C.3       1 <0>         0.0000
     19 C19        -1.6594   -4.8471    0.2871 C.3       1 <0>         0.0000
     20 N1         -3.8764   -5.8209   -0.3410 N.am      1 <0>         0.0000
     21 O1         -3.6229   -3.5764   -0.2276 O.2       1 <0>         0.0000
     22 O2         -2.9485   -3.5915    4.8470 O.3       1 <0>         0.0000
     23 O3         -0.6263   -5.0256    5.9132 O.3       1 <0>         0.0000
     24 Cl1         1.2981   -6.4968    4.2803 Cl        1 <0>         0.0000
     25 H1         -3.4406  -11.0779   -0.1955 H         1 <0>         0.0000
     26 H2         -1.8232   -9.7567    1.1471 H         1 <0>         0.0000
     27 H3         -5.2151   -9.9067   -1.5084 H         1 <0>         0.0000
     28 H4         -1.9377   -7.3010    1.2092 H         1 <0>         0.0000
     29 H5         -3.1395   -3.6757    2.3224 H         1 <0>         0.0000
     30 H6          0.3422   -6.1323    1.6338 H         1 <0>         0.0000
     31 H7         -5.2608   -6.9416   -2.6948 H         1 <0>         0.0000
     32 H8         -6.5393   -7.3223   -1.5350 H         1 <0>         0.0000
     33 H9         -2.4885   -2.7333    7.5318 H         1 <0>         0.0000
     34 H10        -2.4043   -4.4166    8.0705 H         1 <0>         0.0000
     35 H11        -5.2481   -4.7969   -1.5758 H         1 <0>         0.0000
     36 H12        -5.9487   -5.4881   -0.1068 H         1 <0>         0.0000
     37 H13        -3.2786   -5.2781    6.0125 H         1 <0>         0.0000
     38 H14        -4.2818   -3.8558    6.3508 H         1 <0>         0.0000
     39 H15        -0.6215   -2.9538    6.0494 H         1 <0>         0.0000
     40 H16        -0.1220   -3.8571    7.4914 H         1 <0>         0.0000
     41 H17        -1.1695   -3.9596   -0.1252 H         1 <0>         0.0000
     42 H18        -1.2099   -5.7233   -0.1868 H         1 <0>         0.0000
@<TRIPOS>BOND
     1    1    2 ar
     2    1    3 ar
     3    1   25 1
     4    2    4 ar
     5    2   26 1
     6    3    7 ar
     7    3   27 1
     8    4    9 ar
     9    4   28 1
    10    5    8 ar
    11    5   10 ar
    12    5   29 1
    13    6    8 ar
    14    6   12 ar
    15    6   30 1
    16    7    9 ar
    17    7   14 1
    18    8   19 1
    19    9   20 1
    20   10   11 ar
    21   10   22 1
    22   11   12 ar
    23   11   23 1
    24   12   24 1
    25   13   19 1
    26   13   20 am
    27   13   21 2
    28   14   16 1
    29   14   31 1
    30   14   32 1
    31   15   17 1
    32   15   18 1
    33   15   33 1
    34   15   34 1
    35   16   20 1
    36   16   35 1
    37   16   36 1
    38   17   22 1
    39   17   37 1
    40   17   38 1
    41   18   23 1
    42   18   39 1
    43   18   40 1
    44   19   41 1
    45   19   42 1
