@<TRIPOS>MOLECULE
*****
   37    40     0     0     0
SMALL
NO_CHARGES

@<TRIPOS>ATOM
      1 C1          0.3170   -2.7616    2.2846 C.ar      1 <0>         0.0000
      2 C2          1.2871   -1.8931    2.8035 C.ar      1 <0>         0.0000
      3 C3          0.6413   -3.6864    1.2842 C.ar      1 <0>         0.0000
      4 C4          3.4653   -7.7488   -3.9182 C.ar      1 <0>         0.0000
      5 C5          4.1143   -8.5642   -4.8556 C.ar      1 <0>         0.0000
      6 C6          2.6065   -1.9311    2.3312 C.ar      1 <0>         0.0000
      7 C7          1.5353   -9.2475   -3.8409 C.ar      1 <0>         0.0000
      8 C8          1.9558   -3.7260    0.8124 C.ar      1 <0>         0.0000
      9 C9          2.1923   -8.0678   -3.4068 C.ar      1 <0>         0.0000
     10 C10         3.4526   -9.7130   -5.2572 C.ar      1 <0>         0.0000
     11 C11         2.1949  -10.0427   -4.7559 C.ar      1 <0>         0.0000
     12 C12         2.9036   -2.8539    1.3414 C.ar      1 <0>         0.0000
     13 C13         2.5909   -4.5882   -0.2298 C.2       1 <0>         0.0000
     14 C14         1.5646   -7.1742   -2.4074 C.2       1 <0>         0.0000
     15 C15         2.8841  -11.7189   -6.0716 C.3       1 <0>         0.0000
     16 C16         0.0742   -7.2343   -2.1458 C.3       1 <0>         0.0000
     17 N1          3.8547   -4.4161   -0.4852 N.2       1 <0>         0.0000
     18 N2          2.3563   -6.3528   -1.7964 N.2       1 <0>         0.0000
     19 N3          1.8171   -5.5075   -0.8699 N.pl3     1 <0>         0.0000
     20 O1          4.8538   -2.0342   -0.3159 O.2       1 <0>         0.0000
     21 O2          5.4353   -3.7458    1.4529 O.2       1 <0>         0.0000
     22 O3          3.8502  -10.6578   -6.1742 O.3       1 <0>         0.0000
     23 O4          1.7551  -11.2136   -5.3393 O.3       1 <0>         0.0000
     24 S1          4.4737   -3.1834    0.5053 S.o2      1 <0>         0.0000
     25 H1         -0.7002   -2.7171    2.6630 H         1 <0>         0.0000
     26 H2          1.0133   -1.1834    3.5790 H         1 <0>         0.0000
     27 H3         -0.1310   -4.3480    0.8990 H         1 <0>         0.0000
     28 H4          3.9498   -6.8450   -3.5664 H         1 <0>         0.0000
     29 H5          5.0909   -8.3057   -5.2522 H         1 <0>         0.0000
     30 H6          3.3673   -1.2636    2.7247 H         1 <0>         0.0000
     31 H7          0.5649   -9.5497   -3.4638 H         1 <0>         0.0000
     32 H8          2.5640  -12.0138   -7.0730 H         1 <0>         0.0000
     33 H9          3.3285  -12.5596   -5.5224 H         1 <0>         0.0000
     34 H10        -0.1448   -7.6706   -1.1627 H         1 <0>         0.0000
     35 H11        -0.3638   -6.2294   -2.1767 H         1 <0>         0.0000
     36 H12        -0.4504   -7.8237   -2.8957 H         1 <0>         0.0000
     37 H13         0.8449   -5.5877   -0.5906 H         1 <0>         0.0000
@<TRIPOS>BOND
     1    1    2 ar
     2    1    3 ar
     3    1   25 1
     4    2    6 ar
     5    2   26 1
     6    3    8 ar
     7    3   27 1
     8    4    5 ar
     9    4    9 ar
    10    4   28 1
    11    5   10 ar
    12    5   29 1
    13    6   12 ar
    14    6   30 1
    15    7    9 ar
    16    7   11 ar
    17    7   31 1
    18    8   12 ar
    19    8   13 1
    20    9   14 1
    21   10   11 ar
    22   10   22 1
    23   11   23 1
    24   12   24 1
    25   13   17 2
    26   13   19 1
    27   14   16 1
    28   14   18 2
    29   15   22 1
    30   15   23 1
    31   15   32 1
    32   15   33 1
    33   16   34 1
    34   16   35 1
    35   16   36 1
    36   17   24 1
    37   18   19 1
    38   19   37 1
    39   20   24 2
    40   21   24 2
