@<TRIPOS>MOLECULE
*****
   28    29     0     0     0
SMALL
NO_CHARGES

@<TRIPOS>ATOM
      1 C1          1.3776   -2.2785   -1.0772 C.ar      1 <0>         0.0000
      2 C2          0.9402   -2.3845   -2.4056 C.ar      1 <0>         0.0000
      3 C3         -0.3394   -0.6348   -0.6483 C.ar      1 <0>         0.0000
      4 C4          0.7434   -1.4068   -0.1893 C.ar      1 <0>         0.0000
      5 C5         -0.7894   -0.7283   -1.9690 C.ar      1 <0>         0.0000
      6 C6         -0.1272   -1.6171   -2.8343 C.ar      1 <0>         0.0000
      7 C7         -5.8276    1.5076   -2.8270 C.3       1 <0>         0.0000
      8 C8         -5.5419    2.6507   -1.8446 C.3       1 <0>         0.0000
      9 C9         -3.6071    1.5426   -2.4759 C.3       1 <0>         0.0000
     10 C10         1.1863   -1.2958    1.2524 C.3       1 <0>         0.0000
     11 C11        -2.5092    0.8929   -1.6556 C.3       1 <0>         0.0000
     12 O1         -4.6922    0.6570   -2.6551 O.3       1 <0>         0.0000
     13 O2         -4.1069    2.6743   -1.7577 O.3       1 <0>         0.0000
     14 O3         -1.8251   -0.0221   -2.5048 O.3       1 <0>         0.0000
     15 F1         -0.5524   -1.7099   -4.1179 F         1 <0>         0.0000
     16 H1          2.2173   -2.8811   -0.7418 H         1 <0>         0.0000
     17 H2          1.4218   -3.0548   -3.1115 H         1 <0>         0.0000
     18 H3         -0.8290    0.0436    0.0427 H         1 <0>         0.0000
     19 H4         -6.7248    0.9321   -2.5932 H         1 <0>         0.0000
     20 H5         -5.8827    1.8699   -3.8631 H         1 <0>         0.0000
     21 H6         -5.9005    3.6212   -2.2009 H         1 <0>         0.0000
     22 H7         -5.9566    2.4507   -0.8503 H         1 <0>         0.0000
     23 H8         -3.2180    1.8713   -3.4526 H         1 <0>         0.0000
     24 H9          1.2847   -0.2497    1.5612 H         1 <0>         0.0000
     25 H10         0.4612   -1.7683    1.9256 H         1 <0>         0.0000
     26 H11         2.1516   -1.7847    1.4094 H         1 <0>         0.0000
     27 H12        -2.9596    0.3799   -0.7978 H         1 <0>         0.0000
     28 H13        -1.8290    1.6755   -1.2987 H         1 <0>         0.0000
@<TRIPOS>BOND
     1    1    2 ar
     2    1    4 ar
     3    1   16 1
     4    2    6 ar
     5    2   17 1
     6    3    4 ar
     7    3    5 ar
     8    3   18 1
     9    4   10 1
    10    5    6 ar
    11    5   14 1
    12    6   15 1
    13    7    8 1
    14    7   12 1
    15    7   19 1
    16    7   20 1
    17    8   13 1
    18    8   21 1
    19    8   22 1
    20    9   11 1
    21    9   13 1
    22    9   12 1
    23    9   23 1
    24   10   24 1
    25   10   25 1
    26   10   26 1
    27   11   14 1
    28   11   27 1
    29   11   28 1
