@<TRIPOS>MOLECULE
*****
   22    22     0     0     0
SMALL
NO_CHARGES

@<TRIPOS>ATOM
      1 C1          2.7349   -0.5874    0.4828 C.ar      1 <0>         0.0000
      2 C2          1.7148   -0.0533    1.2753 C.ar      1 <0>         0.0000
      3 C3          1.6233   -2.1124    2.5514 C.ar      1 <0>         0.0000
      4 C4          3.2064   -1.8872    0.7085 C.ar      1 <0>         0.0000
      5 C5          1.1646   -0.8175    2.3012 C.ar      1 <0>         0.0000
      6 C6          2.6401   -2.6369    1.7575 C.ar      1 <0>         0.0000
      7 C7          5.7472   -0.7016   -0.5490 C.2       1 <0>         0.0000
      8 C8          4.8238   -1.7731   -1.0765 C.3       1 <0>         0.0000
      9 N1          5.6914    0.4489   -1.1317 N.2       1 <0>         0.0000
     10 N2          6.6165   -1.0667    0.4505 N.pl3     1 <0>         0.0000
     11 O1          6.6591    1.3235   -0.5502 O.3       1 <0>         0.0000
     12 O2          4.1881   -2.5025   -0.0187 O.3       1 <0>         0.0000
     13 Cl1        -0.1154   -0.1525    3.3016 Cl        1 <0>         0.0000
     14 Cl2         3.2244   -4.2548    2.0749 Cl        1 <0>         0.0000
     15 H1          3.1683    0.0285   -0.2957 H         1 <0>         0.0000
     16 H2          1.3585    0.9552    1.0928 H         1 <0>         0.0000
     17 H3          1.1988   -2.7079    3.3521 H         1 <0>         0.0000
     18 H4          5.4023   -2.5318   -1.6088 H         1 <0>         0.0000
     19 H5          4.0977   -1.3328   -1.7642 H         1 <0>         0.0000
     20 H6          7.0653   -0.2977    0.9345 H         1 <0>         0.0000
     21 H7          6.3074   -1.8312    1.0394 H         1 <0>         0.0000
     22 H8          6.5176    2.1468   -1.0427 H         1 <0>         0.0000
@<TRIPOS>BOND
     1    1    2 ar
     2    1    4 ar
     3    1   15 1
     4    2    5 ar
     5    2   16 1
     6    3    5 ar
     7    3    6 ar
     8    3   17 1
     9    4    6 ar
    10    4   12 1
    11    5   13 1
    12    6   14 1
    13    7    8 1
    14    7    9 2
    15    7   10 1
    16    8   12 1
    17    8   18 1
    18    8   19 1
    19    9   11 1
    20   10   20 1
    21   10   21 1
    22   11   22 1
