@<TRIPOS>MOLECULE
*****
   28    30     0     0     0
SMALL
NO_CHARGES

@<TRIPOS>ATOM
      1 C1          2.1590    0.4325   -2.0726 C.ar      1 <0>         0.0000
      2 C2         -0.3795    2.1854    3.3957 C.ar      1 <0>         0.0000
      3 C3          0.3927    1.9085    2.2490 C.ar      1 <0>         0.0000
      4 C4          2.8143    0.3882   -3.2990 C.ar      1 <0>         0.0000
      5 C5         -0.9686   -0.0667    1.7290 C.ar      1 <0>         0.0000
      6 C6          4.0669   -1.5535   -2.5373 C.ar      1 <0>         0.0000
      7 C7          2.4284   -0.4989   -1.0525 C.ar      1 <0>         0.0000
      8 C8         -1.4192    1.3201    3.6760 C.ar      1 <0>         0.0000
      9 C9         -1.7043    0.2219    2.8617 C.ar      1 <0>         0.0000
     10 C10         0.0928    0.8114    1.4497 C.ar      1 <0>         0.0000
     11 C11         3.3936   -1.4837   -1.3208 C.ar      1 <0>         0.0000
     12 C12         3.7674   -0.6110   -3.5196 C.ar      1 <0>         0.0000
     13 C13         1.7179   -0.4460    0.2548 C.2       1 <0>         0.0000
     14 C14        -3.0556    0.1394    4.6415 C.3       1 <0>         0.0000
     15 O1          1.8582   -1.2163    1.1767 O.2       1 <0>         0.0000
     16 O2         -2.3370    1.3815    4.7049 O.3       1 <0>         0.0000
     17 O3         -2.8061   -0.4443    3.3507 O.3       1 <0>         0.0000
     18 O4          0.8501    0.6224    0.2834 O.3       1 <0>         0.0000
     19 F1          3.7092   -2.4075   -0.4000 F         1 <0>         0.0000
     20 Cl1         4.6024   -0.6849   -5.0537 Cl        1 <0>         0.0000
     21 H1          1.4179    1.2009   -1.8882 H         1 <0>         0.0000
     22 H2         -0.1667    3.0401    4.0293 H         1 <0>         0.0000
     23 H3          1.2281    2.5465    1.9798 H         1 <0>         0.0000
     24 H4          2.5931    1.1137   -4.0744 H         1 <0>         0.0000
     25 H5         -1.1842   -0.9203    1.0965 H         1 <0>         0.0000
     26 H6          4.8046   -2.3322   -2.6971 H         1 <0>         0.0000
     27 H7         -2.6831   -0.5376    5.4222 H         1 <0>         0.0000
     28 H8         -4.1245    0.3333    4.7491 H         1 <0>         0.0000
@<TRIPOS>BOND
     1    1    4 ar
     2    1    7 ar
     3    1   21 1
     4    2    3 ar
     5    2    8 ar
     6    2   22 1
     7    3   10 ar
     8    3   23 1
     9    4   12 ar
    10    4   24 1
    11    5    9 ar
    12    5   10 ar
    13    5   25 1
    14    6   11 ar
    15    6   12 ar
    16    6   26 1
    17    7   11 ar
    18    7   13 1
    19    8    9 ar
    20    8   16 1
    21    9   17 1
    22   10   18 1
    23   11   19 1
    24   12   20 1
    25   13   15 2
    26   13   18 1
    27   14   16 1
    28   14   17 1
    29   14   27 1
    30   14   28 1
