@<TRIPOS>MOLECULE
*****
   43    45     0     0     0
SMALL
NO_CHARGES

@<TRIPOS>ATOM
      1 C1         -1.7696    0.3728    3.5205 C.ar      1 <0>         0.0000
      2 C2         -2.6175    0.5251    4.6391 C.ar      1 <0>         0.0000
      3 C3         -2.6125    2.4038    2.5605 C.ar      1 <0>         0.0000
      4 C4         -1.7421    1.2897    2.4704 C.ar      1 <0>         0.0000
      5 C5         -3.4764    1.6144    4.7637 C.ar      1 <0>         0.0000
      6 C6         -2.8837    3.5482    1.7148 C.2       1 <0>         0.0000
      7 C7         -3.4422    2.5374    3.7068 C.ar      1 <0>         0.0000
      8 C8         -3.8241    4.3235    2.3604 C.2       1 <0>         0.0000
      9 C9         -0.8736    4.5843    0.5798 C.2       1 <0>         0.0000
     10 C10        -0.5257    4.4649   -1.9035 C.3       1 <0>         0.0000
     11 C11         1.2013    5.3931   -0.4139 C.3       1 <0>         0.0000
     12 C12        -0.8880    5.8012   -2.5633 C.3       1 <0>         0.0000
     13 C13         1.0457    6.8394   -0.8891 C.3       1 <0>         0.0000
     14 C14        -0.8065    1.0848    1.3017 C.3       1 <0>         0.0000
     15 C15        -4.3834    1.8178    5.9518 C.3       1 <0>         0.0000
     16 C16        -4.4159    5.6464    1.9944 C.3       1 <0>         0.0000
     17 C17        -2.2331    3.8858    0.4085 C.3       1 <0>         0.0000
     18 N1         -4.1616    3.7112    3.5598 N.pl3     1 <0>         0.0000
     19 N2         -0.0543    4.6460   -0.5314 N.am      1 <0>         0.0000
     20 O1         -0.5229    5.0466    1.6636 O.2       1 <0>         0.0000
     21 S1          0.5460    6.9380   -2.6526 S.3       1 <0>         0.0000
     22 H1         -1.1094   -0.4909    3.4819 H         1 <0>         0.0000
     23 H2         -2.5932   -0.2240    5.4276 H         1 <0>         0.0000
     24 H3         -1.3904    3.8015   -1.9175 H         1 <0>         0.0000
     25 H4          0.2698    3.9796   -2.4800 H         1 <0>         0.0000
     26 H5          1.9621    4.8821   -1.0139 H         1 <0>         0.0000
     27 H6          1.5001    5.3762    0.6347 H         1 <0>         0.0000
     28 H7         -1.2134    5.6413   -3.5955 H         1 <0>         0.0000
     29 H8         -1.7065    6.2823   -2.0163 H         1 <0>         0.0000
     30 H9          0.3135    7.3610   -0.2656 H         1 <0>         0.0000
     31 H10         1.9988    7.3712   -0.8180 H         1 <0>         0.0000
     32 H11        -1.3537    0.9023    0.3689 H         1 <0>         0.0000
     33 H12        -0.1622    1.9557    1.1412 H         1 <0>         0.0000
     34 H13        -0.1589    0.2204    1.4731 H         1 <0>         0.0000
     35 H14        -4.1541    2.7533    6.4785 H         1 <0>         0.0000
     36 H15        -5.4390    1.8602    5.6528 H         1 <0>         0.0000
     37 H16        -4.2780    1.0013    6.6710 H         1 <0>         0.0000
     38 H17        -5.4998    5.6646    2.1601 H         1 <0>         0.0000
     39 H18        -3.9711    6.4570    2.5847 H         1 <0>         0.0000
     40 H19        -4.2389    5.8758    0.9413 H         1 <0>         0.0000
     41 H20        -2.1125    2.9850   -0.1967 H         1 <0>         0.0000
     42 H21        -2.8788    4.5535   -0.1748 H         1 <0>         0.0000
     43 H22        -4.8451    4.0633    4.2139 H         1 <0>         0.0000
@<TRIPOS>BOND
     1    1    2 ar
     2    1    4 ar
     3    1   22 1
     4    2    5 ar
     5    2   23 1
     6    3    4 ar
     7    3    6 1
     8    3    7 ar
     9    4   14 1
    10    5    7 ar
    11    5   15 1
    12    6    8 2
    13    6   17 1
    14    7   18 1
    15    8   16 1
    16    8   18 1
    17    9   17 1
    18    9   19 am
    19    9   20 2
    20   10   12 1
    21   10   19 1
    22   10   24 1
    23   10   25 1
    24   11   13 1
    25   11   19 1
    26   11   26 1
    27   11   27 1
    28   12   21 1
    29   12   28 1
    30   12   29 1
    31   13   21 1
    32   13   30 1
    33   13   31 1
    34   14   32 1
    35   14   33 1
    36   14   34 1
    37   15   35 1
    38   15   36 1
    39   15   37 1
    40   16   38 1
    41   16   39 1
    42   16   40 1
    43   17   41 1
    44   17   42 1
    45   18   43 1
