@<TRIPOS>MOLECULE
*****
   42    45     0     0     0
SMALL
NO_CHARGES

@<TRIPOS>ATOM
      1 C1         -3.2294    0.3449    0.3338 C.ar      1 <0>         0.0000
      2 C2         -2.2066   -0.3524   -0.3178 C.ar      1 <0>         0.0000
      3 C3         -4.2461   -0.3595    0.9959 C.ar      1 <0>         0.0000
      4 C4         -2.1702   -1.7540   -0.3349 C.ar      1 <0>         0.0000
      5 C5         -2.1073   -7.4327   -1.8857 C.ar      1 <0>         0.0000
      6 C6         -1.3437   -8.0681    0.3081 C.ar      1 <0>         0.0000
      7 C7         -4.2229   -1.7490    0.9862 C.ar      1 <0>         0.0000
      8 C8         -2.1669   -7.2786   -0.4976 C.ar      1 <0>         0.0000
      9 C9         -3.1971   -2.4388    0.3217 C.ar      1 <0>         0.0000
     10 C10        -1.2500   -8.3634   -2.4698 C.ar      1 <0>         0.0000
     11 C11        -0.4196   -9.1723   -1.6649 C.ar      1 <0>         0.0000
     12 C12        -0.4799   -8.9963   -0.2751 C.ar      1 <0>         0.0000
     13 C13        -2.5859   -4.8143   -0.0761 C.2       1 <0>         0.0000
     14 C14        -5.1537   -2.7330    1.6576 C.3       1 <0>         0.0000
     15 C15         0.8991   -9.4535   -4.4834 C.3       1 <0>         0.0000
     16 C16        -4.7349   -4.0890    1.0473 C.3       1 <0>         0.0000
     17 C17        -0.0592   -8.2693   -4.5453 C.3       1 <0>         0.0000
     18 C18         1.4189   -9.7395   -3.0801 C.3       1 <0>         0.0000
     19 C19        -3.0855   -6.2543    0.1184 C.3       1 <0>         0.0000
     20 N1         -3.4058   -3.8378    0.4407 N.am      1 <0>         0.0000
     21 O1         -1.5302   -4.5589   -0.6494 O.2       1 <0>         0.0000
     22 O2         -1.2905   -8.5025   -3.8385 O.3       1 <0>         0.0000
     23 O3          0.3760  -10.1587   -2.1819 O.3       1 <0>         0.0000
     24 Cl1         0.5492   -9.9730    0.7535 Cl        1 <0>         0.0000
     25 H1         -3.2357    1.4314    0.3291 H         1 <0>         0.0000
     26 H2         -1.4198    0.1989   -0.8262 H         1 <0>         0.0000
     27 H3         -5.0414    0.1743    1.5113 H         1 <0>         0.0000
     28 H4         -1.3801   -2.2957   -0.8359 H         1 <0>         0.0000
     29 H5         -2.7202   -6.8239   -2.5442 H         1 <0>         0.0000
     30 H6         -1.3546   -7.9604    1.3884 H         1 <0>         0.0000
     31 H7         -4.9982   -2.7273    2.7428 H         1 <0>         0.0000
     32 H8         -6.2102   -2.5186    1.4761 H         1 <0>         0.0000
     33 H9          0.3985  -10.3461   -4.8734 H         1 <0>         0.0000
     34 H10         1.7565   -9.2403   -5.1362 H         1 <0>         0.0000
     35 H11        -4.6781   -4.8803    1.7963 H         1 <0>         0.0000
     36 H12        -5.4407   -4.4041    0.2694 H         1 <0>         0.0000
     37 H13         0.4148   -7.3591   -4.1538 H         1 <0>         0.0000
     38 H14        -0.3634   -8.0815   -5.5779 H         1 <0>         0.0000
     39 H15         2.1258  -10.5724   -3.0936 H         1 <0>         0.0000
     40 H16         1.9269   -8.8613   -2.6603 H         1 <0>         0.0000
     41 H17        -4.0910   -6.3382   -0.3117 H         1 <0>         0.0000
     42 H18        -3.1976   -6.4479    1.1905 H         1 <0>         0.0000
@<TRIPOS>BOND
     1    1    2 ar
     2    1    3 ar
     3    1   25 1
     4    2    4 ar
     5    2   26 1
     6    3    7 ar
     7    3   27 1
     8    4    9 ar
     9    4   28 1
    10    5    8 ar
    11    5   10 ar
    12    5   29 1
    13    6    8 ar
    14    6   12 ar
    15    6   30 1
    16    7    9 ar
    17    7   14 1
    18    8   19 1
    19    9   20 1
    20   10   11 ar
    21   10   22 1
    22   11   12 ar
    23   11   23 1
    24   12   24 1
    25   13   19 1
    26   13   20 am
    27   13   21 2
    28   14   16 1
    29   14   31 1
    30   14   32 1
    31   15   17 1
    32   15   18 1
    33   15   33 1
    34   15   34 1
    35   16   20 1
    36   16   35 1
    37   16   36 1
    38   17   22 1
    39   17   37 1
    40   17   38 1
    41   18   23 1
    42   18   39 1
    43   18   40 1
    44   19   41 1
    45   19   42 1
