@<TRIPOS>MOLECULE
*****
   30    32     0     0     0
SMALL
NO_CHARGES

@<TRIPOS>ATOM
      1 C1         -4.4272    2.5035    1.0883 C.ar      1 <0>         0.0000
      2 C2         -4.1978    3.7576    1.6791 C.ar      1 <0>         0.0000
      3 C3         -3.3630    1.6391    0.8351 C.ar      1 <0>         0.0000
      4 C4         -2.9108    4.1782    2.0292 C.ar      1 <0>         0.0000
      5 C5          0.1601    2.2320    1.5377 C.2       1 <0>         0.0000
      6 C6         -2.0650    2.0395    1.1807 C.ar      1 <0>         0.0000
      7 C7         -0.7805    1.3817    1.0455 C.2       1 <0>         0.0000
      8 C8         -1.8414    3.3119    1.7766 C.ar      1 <0>         0.0000
      9 C9          0.3322    4.4423    2.5622 C.2       1 <0>         0.0000
     10 C10        -0.4813   -0.1082   -1.1020 C.3       1 <0>         0.0000
     11 C11         0.7545   -1.0095   -0.8642 C.3       1 <0>         0.0000
     12 C12        -0.5378    0.0364    0.4507 C.3       1 <0>         0.0000
     13 C13        -0.3662    5.6949    3.0400 C.3       1 <0>         0.0000
     14 N1         -0.4475    3.4192    1.9974 N.am      1 <0>         0.0000
     15 N2          0.8692   -0.4437    0.5102 N.3       1 <0>         0.0000
     16 O1          1.5434    4.3045    2.6558 O.2       1 <0>         0.0000
     17 H1         -5.4406    2.2104    0.8275 H         1 <0>         0.0000
     18 H2         -5.0359    4.4222    1.8702 H         1 <0>         0.0000
     19 H3         -3.5345    0.6697    0.3743 H         1 <0>         0.0000
     20 H4         -2.7831    5.1526    2.4797 H         1 <0>         0.0000
     21 H5          1.2295    2.1159    1.6126 H         1 <0>         0.0000
     22 H6         -0.2297    0.8380   -1.5851 H         1 <0>         0.0000
     23 H7         -1.3480   -0.5566   -1.5917 H         1 <0>         0.0000
     24 H8          0.4972   -2.0780   -0.8881 H         1 <0>         0.0000
     25 H9          1.6347   -0.8396   -1.4925 H         1 <0>         0.0000
     26 H10        -1.2580   -0.6878    0.8650 H         1 <0>         0.0000
     27 H11        -1.0953    5.4673    3.8227 H         1 <0>         0.0000
     28 H12        -0.8881    6.1945    2.2190 H         1 <0>         0.0000
     29 H13         0.3962    6.3622    3.4411 H         1 <0>         0.0000
     30 H14         1.0532   -1.1229    1.2461 H         1 <0>         0.0000
@<TRIPOS>BOND
     1    1    2 ar
     2    1    3 ar
     3    1   17 1
     4    2    4 ar
     5    2   18 1
     6    3    6 ar
     7    3   19 1
     8    4    8 ar
     9    4   20 1
    10    5    7 2
    11    5   14 1
    12    5   21 1
    13    6    7 1
    14    6    8 ar
    15    7   12 1
    16    8   14 1
    17    9   13 1
    18    9   14 am
    19    9   16 2
    20   10   11 1
    21   10   12 1
    22   10   22 1
    23   10   23 1
    24   11   15 1
    25   11   24 1
    26   11   25 1
    27   12   15 1
    28   12   26 1
    29   13   27 1
    30   13   28 1
    31   13   29 1
    32   15   30 1
