@<TRIPOS>MOLECULE
*****
   35    35     0     0     0
SMALL
NO_CHARGES

@<TRIPOS>ATOM
      1 C1          1.8851   -1.0363   -0.1124 C.ar      1 <0>         0.0000
      2 C2          0.8066   -0.4630    0.5610 C.ar      1 <0>         0.0000
      3 C3          2.9210   -1.6309    0.6081 C.ar      1 <0>         0.0000
      4 C4          0.7638   -0.4841    1.9551 C.ar      1 <0>         0.0000
      5 C5          2.8783   -1.6520    2.0022 C.ar      1 <0>         0.0000
      6 C6          1.7997   -1.0786    2.6757 C.ar      1 <0>         0.0000
      7 C7         -1.7298   -0.5608    2.3149 C.3       1 <0>         0.0000
      8 C8         -0.5132    1.6460    2.3860 C.3       1 <0>         0.0000
      9 C9          5.3912   -1.6630    2.5112 C.3       1 <0>         0.0000
     10 C10         4.0703   -3.8041    2.4435 C.3       1 <0>         0.0000
     11 C11         1.1249   -2.2190    4.6505 C.3       1 <0>         0.0000
     12 C12        -0.3995    0.1347    2.6576 C.3       1 <0>         0.0000
     13 C13         3.9970   -2.2931    2.7555 C.3       1 <0>         0.0000
     14 O1          3.7803   -2.1715    4.1796 O.3       1 <0>         0.0000
     15 O2          1.7585   -1.0981    4.0388 O.3       1 <0>         0.0000
     16 H1          1.9183   -1.0200   -1.1979 H         1 <0>         0.0000
     17 H2          0.0045   -0.0021   -0.0092 H         1 <0>         0.0000
     18 H3          3.7571   -2.0747    0.0745 H         1 <0>         0.0000
     19 H4         -1.9467   -0.5111    1.2422 H         1 <0>         0.0000
     20 H5         -2.5700   -0.0996    2.8454 H         1 <0>         0.0000
     21 H6         -1.6935   -1.6183    2.5994 H         1 <0>         0.0000
     22 H7         -0.6412    1.8340    1.3141 H         1 <0>         0.0000
     23 H8          0.3852    2.1796    2.7148 H         1 <0>         0.0000
     24 H9         -1.3703    2.0864    2.9070 H         1 <0>         0.0000
     25 H10         6.1760   -2.1691    3.0863 H         1 <0>         0.0000
     26 H11         5.6813   -1.6981    1.4564 H         1 <0>         0.0000
     27 H12         5.3960   -0.6159    2.8368 H         1 <0>         0.0000
     28 H13         4.8850   -4.2982    2.9855 H         1 <0>         0.0000
     29 H14         4.2123   -3.9820    1.3720 H         1 <0>         0.0000
     30 H15         3.1455   -4.3058    2.7529 H         1 <0>         0.0000
     31 H16         1.1606   -2.1105    5.7373 H         1 <0>         0.0000
     32 H17         1.6353   -3.1369    4.3483 H         1 <0>         0.0000
     33 H18         0.0828   -2.2598    4.3247 H         1 <0>         0.0000
     34 H19        -0.2737    0.0303    3.7515 H         1 <0>         0.0000
     35 H20         4.5368   -2.6049    4.5914 H         1 <0>         0.0000
@<TRIPOS>BOND
     1    1    2 ar
     2    1    3 ar
     3    1   16 1
     4    2    4 ar
     5    2   17 1
     6    3    5 ar
     7    3   18 1
     8    4    6 ar
     9    4   12 1
    10    5    6 ar
    11    5   13 1
    12    6   15 1
    13    7   12 1
    14    7   19 1
    15    7   20 1
    16    7   21 1
    17    8   12 1
    18    8   22 1
    19    8   23 1
    20    8   24 1
    21    9   13 1
    22    9   25 1
    23    9   26 1
    24    9   27 1
    25   10   13 1
    26   10   28 1
    27   10   29 1
    28   10   30 1
    29   11   15 1
    30   11   31 1
    31   11   32 1
    32   11   33 1
    33   12   34 1
    34   13   14 1
    35   14   35 1
