@<TRIPOS>MOLECULE
*****
   32    33     0     0     0
SMALL
NO_CHARGES

@<TRIPOS>ATOM
      1 C1          1.2057    1.0028   -1.8747 C.ar      1 <0>         0.0000
      2 C2         -0.0414    0.5705   -2.3370 C.ar      1 <0>         0.0000
      3 C3          1.5102    0.9183   -0.5173 C.ar      1 <0>         0.0000
      4 C4         -0.9617    0.0239   -1.4410 C.ar      1 <0>         0.0000
      5 C5          0.5950    0.3919    0.4119 C.ar      1 <0>         0.0000
      6 C6         -0.6488   -0.0824   -0.0806 C.ar      1 <0>         0.0000
      7 C7          0.2724   -0.4945    2.6840 C.2       1 <0>         0.0000
      8 C8          0.8879    0.3825    1.8615 C.2       1 <0>         0.0000
      9 C9         -0.6987   -1.5313    2.1930 C.3       1 <0>         0.0000
     10 C10         1.8488    1.3923    2.4585 C.3       1 <0>         0.0000
     11 C11        -0.1248    3.0754    2.4044 C.3       1 <0>         0.0000
     12 C12         1.4114    2.8728    2.3565 C.3       1 <0>         0.0000
     13 C13         2.1117    3.6693    3.4798 C.3       1 <0>         0.0000
     14 O1         -0.7758    2.4893    3.5173 O.3       1 <0>         0.0000
     15 O2          1.9003    3.3910    1.1209 O.3       1 <0>         0.0000
     16 F1          3.4562    3.5125    3.4365 F         1 <0>         0.0000
     17 F2          1.8659    5.0027    3.3362 F         1 <0>         0.0000
     18 F3          1.7056    3.3159    4.7147 F         1 <0>         0.0000
     19 S1         -1.8720   -0.7696    1.0127 S.3       1 <0>         0.0000
     20 H1          1.9350    1.4146   -2.5666 H         1 <0>         0.0000
     21 H2         -0.2930    0.6419   -3.3919 H         1 <0>         0.0000
     22 H3          2.4684    1.2854   -0.1704 H         1 <0>         0.0000
     23 H4         -1.9202   -0.3425   -1.7985 H         1 <0>         0.0000
     24 H5          0.4887   -0.4735    3.7507 H         1 <0>         0.0000
     25 H6         -0.1898   -2.3670    1.6982 H         1 <0>         0.0000
     26 H7         -1.3006   -1.9342    3.0103 H         1 <0>         0.0000
     27 H8          1.9787    1.1450    3.5135 H         1 <0>         0.0000
     28 H9          2.8381    1.3223    1.9979 H         1 <0>         0.0000
     29 H10        -0.5142    2.6942    1.4536 H         1 <0>         0.0000
     30 H11        -0.3393    4.1481    2.4470 H         1 <0>         0.0000
     31 H12        -0.9027    1.5474    3.3136 H         1 <0>         0.0000
     32 H13         1.5772    4.3017    1.0131 H         1 <0>         0.0000
@<TRIPOS>BOND
     1    1    2 ar
     2    1    3 ar
     3    1   20 1
     4    2    4 ar
     5    2   21 1
     6    3    5 ar
     7    3   22 1
     8    4    6 ar
     9    4   23 1
    10    5    6 ar
    11    5    8 1
    12    6   19 1
    13    7    8 2
    14    7    9 1
    15    7   24 1
    16    8   10 1
    17    9   19 1
    18    9   25 1
    19    9   26 1
    20   10   12 1
    21   10   27 1
    22   10   28 1
    23   11   12 1
    24   11   14 1
    25   11   29 1
    26   11   30 1
    27   12   13 1
    28   12   15 1
    29   13   16 1
    30   13   17 1
    31   13   18 1
    32   14   31 1
    33   15   32 1
