@<TRIPOS>MOLECULE
*****
   46    47     0     0     0
SMALL
NO_CHARGES

@<TRIPOS>ATOM
      1 C1          0.3445   -3.0379   -4.0275 C.ar      1 <0>         0.0000
      2 C2         -0.8738   -2.3872   -4.2425 C.ar      1 <0>         0.0000
      3 C3          1.3203   -2.4282   -3.2301 C.ar      1 <0>         0.0000
      4 C4         -1.1099   -1.1372   -3.6599 C.ar      1 <0>         0.0000
      5 C5          1.0812   -1.1800   -2.6519 C.ar      1 <0>         0.0000
      6 C6         -0.1394   -0.5183   -2.8587 C.ar      1 <0>         0.0000
      7 C7         -0.9597    2.1434   -0.1247 C.2       1 <0>         0.0000
      8 C8         -1.7136   -0.2517   -0.2259 C.3       1 <0>         0.0000
      9 C9         -1.1105   -0.7830    1.0701 C.3       1 <0>         0.0000
     10 C10        -0.6259    0.7465   -0.6847 C.3       1 <0>         0.0000
     11 C11        -3.5486    4.4640   -1.2480 C.3       1 <0>         0.0000
     12 C12         1.0082   -2.2635    2.5809 C.3       1 <0>         0.0000
     13 C13         2.6806   -1.0765    1.1395 C.3       1 <0>         0.0000
     14 C14         1.2498    0.2518    2.7351 C.3       1 <0>         0.0000
     15 C15        -0.4177    0.8217   -2.2186 C.3       1 <0>         0.0000
     16 C16        -2.4135    4.0141   -0.3473 C.3       1 <0>         0.0000
     17 C17         1.2951   -0.9708    1.7992 C.3       1 <0>         0.0000
     18 N1          0.2996   -0.9263    0.6978 N.3       1 <0>         0.0000
     19 O1         -0.4139    2.6726    0.8205 O.2       1 <0>         0.0000
     20 O2          0.5798    0.3107   -0.0690 O.3       1 <0>         0.0000
     21 O3         -1.9836    2.7064   -0.8104 O.3       1 <0>         0.0000
     22 H1          0.5332   -4.0091   -4.4781 H         1 <0>         0.0000
     23 H2         -1.6380   -2.8491   -4.8628 H         1 <0>         0.0000
     24 H3          2.2701   -2.9285   -3.0573 H         1 <0>         0.0000
     25 H4         -2.0603   -0.6354   -3.8319 H         1 <0>         0.0000
     26 H5          1.8320   -0.7187   -2.0192 H         1 <0>         0.0000
     27 H6         -1.8035   -1.0566   -0.9578 H         1 <0>         0.0000
     28 H7         -2.6885    0.2207   -0.0931 H         1 <0>         0.0000
     29 H8         -1.2784   -0.0808    1.8989 H         1 <0>         0.0000
     30 H9         -1.5084   -1.7635    1.3400 H         1 <0>         0.0000
     31 H10        -3.2173    4.5361   -2.2882 H         1 <0>         0.0000
     32 H11        -4.3885    3.7646   -1.1992 H         1 <0>         0.0000
     33 H12        -3.9025    5.4500   -0.9301 H         1 <0>         0.0000
     34 H13         0.0538   -2.2146    3.1147 H         1 <0>         0.0000
     35 H14         0.9883   -3.1270    1.9086 H         1 <0>         0.0000
     36 H15         1.7939   -2.4223    3.3257 H         1 <0>         0.0000
     37 H16         2.9245   -0.1596    0.5984 H         1 <0>         0.0000
     38 H17         2.6991   -1.9121    0.4328 H         1 <0>         0.0000
     39 H18         3.4494   -1.2427    1.9012 H         1 <0>         0.0000
     40 H19         1.3065    1.1794    2.1627 H         1 <0>         0.0000
     41 H20         0.3334    0.2764    3.3334 H         1 <0>         0.0000
     42 H21         2.0927    0.2120    3.4331 H         1 <0>         0.0000
     43 H22         0.4202    1.5052   -2.3958 H         1 <0>         0.0000
     44 H23        -1.3042    1.2765   -2.6656 H         1 <0>         0.0000
     45 H24        -2.7249    3.9287    0.6977 H         1 <0>         0.0000
     46 H25        -1.5597    4.6959   -0.3877 H         1 <0>         0.0000
@<TRIPOS>BOND
     1    1    3 ar
     2    1    2 ar
     3    1   22 1
     4    2    4 ar
     5    2   23 1
     6    3    5 ar
     7    3   24 1
     8    4    6 ar
     9    4   25 1
    10    5    6 ar
    11    5   26 1
    12    6   15 1
    13    7   10 1
    14    7   19 2
    15    7   21 1
    16    8    9 1
    17    8   10 1
    18    8   27 1
    19    8   28 1
    20    9   18 1
    21    9   29 1
    22    9   30 1
    23   10   15 1
    24   10   20 1
    25   11   16 1
    26   11   31 1
    27   11   32 1
    28   11   33 1
    29   12   17 1
    30   12   34 1
    31   12   35 1
    32   12   36 1
    33   13   17 1
    34   13   37 1
    35   13   38 1
    36   13   39 1
    37   14   17 1
    38   14   40 1
    39   14   41 1
    40   14   42 1
    41   15   43 1
    42   15   44 1
    43   16   21 1
    44   16   45 1
    45   16   46 1
    46   17   18 1
    47   18   20 1
