@<TRIPOS>MOLECULE
*****
   27    28     0     0     0
SMALL
NO_CHARGES

@<TRIPOS>ATOM
      1 C1          1.9154   -0.4115    0.0362 C.ar      1 <0>         0.0000
      2 C2          0.4285    3.5144    5.9015 C.ar      1 <0>         0.0000
      3 C3          0.6667   -0.3902    0.6681 C.ar      1 <0>         0.0000
      4 C4         -0.4546    2.4533    6.1245 C.ar      1 <0>         0.0000
      5 C5          3.0819   -0.5483    0.7846 C.ar      1 <0>         0.0000
      6 C6          1.6477    3.3003    5.2556 C.ar      1 <0>         0.0000
      7 C7          0.6090   -0.5067    2.0547 C.ar      1 <0>         0.0000
      8 C8         -0.1056    1.1702    5.6991 C.ar      1 <0>         0.0000
      9 C9          3.0350   -0.6602    2.1854 C.ar      1 <0>         0.0000
     10 C10         2.0034    2.0134    4.8328 C.ar      1 <0>         0.0000
     11 C11         1.7771   -0.6311    2.8171 C.ar      1 <0>         0.0000
     12 C12         1.1170    0.9486    5.0619 C.ar      1 <0>         0.0000
     13 O1          0.2866   -1.5161    4.7986 O.2       1 <0>         0.0000
     14 O2          2.7611   -1.1600    5.2766 O.2       1 <0>         0.0000
     15 O3          4.1704   -0.8032    2.9167 O.3       1 <0>         0.0000
     16 O4          3.1715    1.7505    4.1807 O.3       1 <0>         0.0000
     17 S1          1.5302   -0.7503    4.6021 S.o2      1 <0>         0.0000
     18 H1          1.9831   -0.3279   -1.0453 H         1 <0>         0.0000
     19 H2          0.1681    4.5184    6.2258 H         1 <0>         0.0000
     20 H3         -0.2466   -0.2949    0.0891 H         1 <0>         0.0000
     21 H4         -1.4036    2.6218    6.6242 H         1 <0>         0.0000
     22 H5          4.0493   -0.5742    0.2848 H         1 <0>         0.0000
     23 H6          2.3275    4.1318    5.0766 H         1 <0>         0.0000
     24 H7         -0.3481   -0.5154    2.5667 H         1 <0>         0.0000
     25 H8         -0.7674    0.3237    5.8531 H         1 <0>         0.0000
     26 H9          4.9264   -0.8427    2.3093 H         1 <0>         0.0000
     27 H10         3.7076    2.5580    4.1381 H         1 <0>         0.0000
@<TRIPOS>BOND
     1    1    3 ar
     2    1    5 ar
     3    1   18 1
     4    2    4 ar
     5    2    6 ar
     6    2   19 1
     7    3    7 ar
     8    3   20 1
     9    4    8 ar
    10    4   21 1
    11    5    9 ar
    12    5   22 1
    13    6   10 ar
    14    6   23 1
    15    7   11 ar
    16    7   24 1
    17    8   12 ar
    18    8   25 1
    19    9   11 ar
    20    9   15 1
    21   10   12 ar
    22   10   16 1
    23   11   17 1
    24   12   17 1
    25   13   17 2
    26   14   17 2
    27   15   26 1
    28   16   27 1
