@<TRIPOS>MOLECULE
*****
   32    33     0     0     0
SMALL
NO_CHARGES

@<TRIPOS>ATOM
      1 C1          1.6061    0.6836   -1.9602 C.ar      1 <0>         0.0000
      2 C2          0.5577    0.1059   -2.6835 C.ar      1 <0>         0.0000
      3 C3          1.5795    0.6553   -0.5669 C.ar      1 <0>         0.0000
      4 C4         -0.4784   -0.5361   -2.0047 C.ar      1 <0>         0.0000
      5 C5          0.5250    0.0561    0.1470 C.ar      1 <0>         0.0000
      6 C6         -0.4943   -0.5849   -0.6046 C.ar      1 <0>         0.0000
      7 C7         -0.2342   -0.8005    2.3247 C.2       1 <0>         0.0000
      8 C8          0.4419    0.1291    1.6236 C.2       1 <0>         0.0000
      9 C9         -0.9131   -1.9729    1.6755 C.3       1 <0>         0.0000
     10 C10         1.0564    1.3054    2.3568 C.3       1 <0>         0.0000
     11 C11         0.0242    3.1972    0.9426 C.3       1 <0>         0.0000
     12 C12         0.2508    2.6298    2.3575 C.3       1 <0>         0.0000
     13 C13        -1.0913    2.4653    3.1124 C.3       1 <0>         0.0000
     14 O1         -0.5724    4.4808    0.9630 O.3       1 <0>         0.0000
     15 O2          0.9577    3.6130    3.1323 O.3       1 <0>         0.0000
     16 F1         -0.9324    1.7447    4.2559 F         1 <0>         0.0000
     17 F2         -1.6235    3.6473    3.4726 F         1 <0>         0.0000
     18 F3         -2.0026    1.8174    2.3554 F         1 <0>         0.0000
     19 S1         -1.8379   -1.4286    0.1914 S.3       1 <0>         0.0000
     20 H1          2.4359    1.1568   -2.4777 H         1 <0>         0.0000
     21 H2          0.5568    0.1332   -3.7698 H         1 <0>         0.0000
     22 H3          2.4031    1.1086   -0.0241 H         1 <0>         0.0000
     23 H4         -1.2742   -1.0228   -2.5623 H         1 <0>         0.0000
     24 H5         -0.3271   -0.6989    3.4030 H         1 <0>         0.0000
     25 H6         -0.1961   -2.7484    1.3809 H         1 <0>         0.0000
     26 H7         -1.6484   -2.4255    2.3440 H         1 <0>         0.0000
     27 H8          1.2268    1.0353    3.4009 H         1 <0>         0.0000
     28 H9          2.0389    1.5479    1.9352 H         1 <0>         0.0000
     29 H10        -0.6267    2.5470    0.3572 H         1 <0>         0.0000
     30 H11         1.0054    3.2250    0.4449 H         1 <0>         0.0000
     31 H12        -0.1368    4.9868    1.6707 H         1 <0>         0.0000
     32 H13         1.9077    3.4939    2.9739 H         1 <0>         0.0000
@<TRIPOS>BOND
     1    1    2 ar
     2    1    3 ar
     3    1   20 1
     4    2    4 ar
     5    2   21 1
     6    3    5 ar
     7    3   22 1
     8    4    6 ar
     9    4   23 1
    10    5    6 ar
    11    5    8 1
    12    6   19 1
    13    7    8 2
    14    7    9 1
    15    7   24 1
    16    8   10 1
    17    9   19 1
    18    9   25 1
    19    9   26 1
    20   10   12 1
    21   10   27 1
    22   10   28 1
    23   11   12 1
    24   11   14 1
    25   11   29 1
    26   11   30 1
    27   12   13 1
    28   12   15 1
    29   13   16 1
    30   13   17 1
    31   13   18 1
    32   14   31 1
    33   15   32 1
