@<TRIPOS>MOLECULE
*****
   25    26     0     0     0
SMALL
NO_CHARGES

@<TRIPOS>ATOM
      1 C1          3.1465   -1.0003   -0.4934 C.ar      1 <0>         0.0000
      2 C2          1.4656    1.2363   -0.9755 C.ar      1 <0>         0.0000
      3 C3          3.6326    0.1570   -1.1238 C.ar      1 <0>         0.0000
      4 C4          2.8102    1.2593   -1.3579 C.ar      1 <0>         0.0000
      5 C5          0.9565    0.0895   -0.3505 C.ar      1 <0>         0.0000
      6 C6          1.8205   -1.0132   -0.1204 C.ar      1 <0>         0.0000
      7 C7          4.9963    0.4231   -1.6195 C.2       1 <0>         0.0000
      8 C8          3.5762    2.3902   -2.0142 C.3       1 <0>         0.0000
      9 C9          4.9839    1.8071   -2.2969 C.3       1 <0>         0.0000
     10 C10         6.1552    2.6789   -1.8360 C.3       1 <0>         0.0000
     11 C11        -1.2359    1.0030   -0.1392 C.3       1 <0>         0.0000
     12 O1          5.9720   -0.3084   -1.5259 O.2       1 <0>         0.0000
     13 O2         -0.3220   -0.0735    0.0695 O.3       1 <0>         0.0000
     14 F1          1.2964   -2.1027    0.4860 F         1 <0>         0.0000
     15 H1          3.7862   -1.8578   -0.3069 H         1 <0>         0.0000
     16 H2          0.8285    2.0950   -1.1586 H         1 <0>         0.0000
     17 H3          3.0789    2.7414   -2.9246 H         1 <0>         0.0000
     18 H4          3.6380    3.2501   -1.3364 H         1 <0>         0.0000
     19 H5          5.0919    1.6130   -3.3715 H         1 <0>         0.0000
     20 H6          6.0747    2.9037   -0.7665 H         1 <0>         0.0000
     21 H7          6.1772    3.6275   -2.3825 H         1 <0>         0.0000
     22 H8          7.1022    2.1581   -2.0011 H         1 <0>         0.0000
     23 H9         -2.1892    0.6617    0.2643 H         1 <0>         0.0000
     24 H10        -1.3482    1.2251   -1.2069 H         1 <0>         0.0000
     25 H11        -0.9137    1.9047    0.3946 H         1 <0>         0.0000
@<TRIPOS>BOND
     1    1    3 ar
     2    1    6 ar
     3    1   15 1
     4    2    4 ar
     5    2    5 ar
     6    2   16 1
     7    3    4 ar
     8    3    7 1
     9    4    8 1
    10    5    6 ar
    11    5   13 1
    12    6   14 1
    13    7    9 1
    14    7   12 2
    15    8    9 1
    16    8   17 1
    17    8   18 1
    18    9   10 1
    19    9   19 1
    20   10   20 1
    21   10   21 1
    22   10   22 1
    23   11   13 1
    24   11   23 1
    25   11   24 1
    26   11   25 1
