@<TRIPOS>MOLECULE
*****
   59    62     0     0     0
SMALL
NO_CHARGES

@<TRIPOS>ATOM
      1 C1          0.9539    1.7705    0.2355 C.ar      1 <0>         0.0000
      2 C2          0.1353    3.5867   -1.1367 C.ar      1 <0>         0.0000
      3 C3         -1.4869    0.2562   -0.6666 C.ar      1 <0>         0.0000
      4 C4          2.1813    2.4211    0.3553 C.ar      1 <0>         0.0000
      5 C5          1.3686    4.2259   -1.0185 C.ar      1 <0>         0.0000
      6 C6         -2.7171   -0.3863   -0.7511 C.ar      1 <0>         0.0000
      7 C7         -3.9682   -2.1804    1.9264 C.ar      1 <0>         0.0000
      8 C8         -3.0689   -3.9634    0.5418 C.ar      1 <0>         0.0000
      9 C9         -2.6839   -1.8387    2.3387 C.ar      1 <0>         0.0000
     10 C10        -1.7742   -3.6234    0.9592 C.ar      1 <0>         0.0000
     11 C11        -2.5996    2.3891   -0.6978 C.ar      1 <0>         0.0000
     12 C12        -0.0937    2.3447   -0.5121 C.ar      1 <0>         0.0000
     13 C13        -1.3961    1.6644   -0.6276 C.ar      1 <0>         0.0000
     14 C14         2.4087    3.6559   -0.2697 C.ar      1 <0>         0.0000
     15 C15        -3.8511    1.7689   -0.7867 C.ar      1 <0>         0.0000
     16 C16        -3.8835    0.3729   -0.7984 C.ar      1 <0>         0.0000
     17 C17        -4.1557   -3.2336    1.0254 C.ar      1 <0>         0.0000
     18 C18        -1.6028   -2.5668    1.8433 C.ar      1 <0>         0.0000
     19 C19         3.7772    4.3742   -0.1363 C.2       1 <0>         0.0000
     20 C20        -5.1282    2.5785   -0.8822 C.3       1 <0>         0.0000
     21 C21        -6.3556    1.7323   -0.5234 C.3       1 <0>         0.0000
     22 C22        -6.2579    0.3790   -1.2227 C.3       1 <0>         0.0000
     23 C23        -7.4203   -0.5484   -0.8559 C.3       1 <0>         0.0000
     24 C24        -7.8650   -3.0384   -0.5515 C.3       1 <0>         0.0000
     25 C25        -5.7308   -4.4427   -0.3562 C.3       1 <0>         0.0000
     26 C26        -7.2374   -4.4371   -0.6694 C.3       1 <0>         0.0000
     27 N1         -7.0021   -1.9688   -1.1478 N.4       1 <0>         0.0000
     28 O1          3.8553    5.4763   -0.7417 O.co2     1 <0>         0.0000
     29 O2          4.6292    3.7608    0.5598 O.co2     1 <0>         0.0000
     30 O3         -5.0996   -0.3426   -0.8090 O.3       1 <0>         0.0000
     31 O4         -8.0106   -5.1960    0.2500 O.3       1 <0>         0.0000
     32 O5         -5.4768   -3.4568    0.6352 O.3       1 <0>         0.0000
     33 F1         -0.3545   -2.2271    2.2272 F         1 <0>         0.0000
     34 H1          0.7899    0.8289    0.7577 H         1 <0>         0.0000
     35 H2         -0.6456    4.0316   -1.7519 H         1 <0>         0.0000
     36 H3         -0.5778   -0.3363   -0.6502 H         1 <0>         0.0000
     37 H4          2.9972    2.0040    0.9392 H         1 <0>         0.0000
     38 H5          1.5720    5.1764   -1.5041 H         1 <0>         0.0000
     39 H6         -2.7790   -1.4696   -0.7841 H         1 <0>         0.0000
     40 H7         -4.8291   -1.6212    2.2789 H         1 <0>         0.0000
     41 H8         -3.1944   -4.7871   -0.1519 H         1 <0>         0.0000
     42 H9         -2.5091   -1.0076    3.0137 H         1 <0>         0.0000
     43 H10        -0.9084   -4.1673    0.5954 H         1 <0>         0.0000
     44 H11        -2.5615    3.4742   -0.6484 H         1 <0>         0.0000
     45 H12        -5.0736    3.4478   -0.2206 H         1 <0>         0.0000
     46 H13        -5.2402    2.9717   -1.9005 H         1 <0>         0.0000
     47 H14        -6.3906    1.5569    0.5583 H         1 <0>         0.0000
     48 H15        -7.2826    2.2400   -0.8130 H         1 <0>         0.0000
     49 H16        -6.2174    0.5263   -2.3142 H         1 <0>         0.0000
     50 H17        -8.3349   -0.3212   -1.4058 H         1 <0>         0.0000
     51 H18        -7.6172   -0.5095    0.2170 H         1 <0>         0.0000
     52 H19        -8.8469   -3.0074   -1.0251 H         1 <0>         0.0000
     53 H20        -7.9681   -2.8056    0.5079 H         1 <0>         0.0000
     54 H21        -5.1536   -4.2239   -1.2679 H         1 <0>         0.0000
     55 H22        -5.4374   -5.4411   -0.0092 H         1 <0>         0.0000
     56 H23        -7.3639   -4.8240   -1.6915 H         1 <0>         0.0000
     57 H24        -6.8993   -2.0950   -2.1597 H         1 <0>         0.0000
     58 H25        -6.0507   -2.0384   -0.7366 H         1 <0>         0.0000
     59 H26        -7.8699   -6.1429    0.0905 H         1 <0>         0.0000
@<TRIPOS>BOND
     1    1    4 ar
     2    1   12 ar
     3    1   34 1
     4    2    5 ar
     5    2   12 ar
     6    2   35 1
     7    3    6 ar
     8    3   13 ar
     9    3   36 1
    10    4   14 ar
    11    4   37 1
    12    5   14 ar
    13    5   38 1
    14    6   16 ar
    15    6   39 1
    16    7    9 ar
    17    7   17 ar
    18    7   40 1
    19    8   10 ar
    20    8   17 ar
    21    8   41 1
    22    9   18 ar
    23    9   42 1
    24   10   18 ar
    25   10   43 1
    26   11   13 ar
    27   11   15 ar
    28   11   44 1
    29   12   13 1
    30   14   19 1
    31   15   16 ar
    32   15   20 1
    33   16   30 1
    34   17   32 1
    35   18   33 1
    36   19   28 1
    37   19   29 2
    38   20   21 1
    39   20   45 1
    40   20   46 1
    41   21   22 1
    42   21   47 1
    43   21   48 1
    44   22   23 1
    45   22   30 1
    46   22   49 1
    47   23   27 1
    48   23   50 1
    49   23   51 1
    50   24   26 1
    51   24   27 1
    52   24   52 1
    53   24   53 1
    54   25   26 1
    55   25   32 1
    56   25   54 1
    57   25   55 1
    58   26   31 1
    59   26   56 1
    60   27   57 1
    61   27   58 1
    62   31   59 1
