@<TRIPOS>MOLECULE
*****
   69    72     0     0     0
SMALL
NO_CHARGES

@<TRIPOS>ATOM
      1 C1         -1.7133   -0.5815    6.1683 C.ar      1 <0>         0.0000
      2 C2         -0.7679    7.5063    1.8010 C.ar      1 <0>         0.0000
      3 C3         -2.5714    0.3853    5.6527 C.ar      1 <0>         0.0000
      4 C4         -1.8216    6.5994    1.9941 C.ar      1 <0>         0.0000
      5 C5          0.1731    0.6720    5.2951 C.ar      1 <0>         0.0000
      6 C6         -0.5735    4.8990    0.7762 C.ar      1 <0>         0.0000
      7 C7         -0.3266   -0.4420    5.9887 C.ar      1 <0>         0.0000
      8 C8          0.3782    7.1092    1.1209 C.ar      1 <0>         0.0000
      9 C9          0.4633    5.8057    0.6028 C.ar      1 <0>         0.0000
     10 C10        -0.6743    1.6503    4.7688 C.ar      1 <0>         0.0000
     11 C11        -1.7172    5.2951    1.4907 C.ar      1 <0>         0.0000
     12 C12        -2.0592    1.4892    4.9608 C.ar      1 <0>         0.0000
     13 C13         1.2348   -3.2540    7.5344 C.2       1 <0>         0.0000
     14 C14         2.3395   -2.5754    7.0664 C.2       1 <0>         0.0000
     15 C15         0.6068   -1.4310    6.5093 C.2       1 <0>         0.0000
     16 C16         1.0436   -4.5020    8.2742 C.2       1 <0>         0.0000
     17 C17         3.3591    9.5796    1.6686 C.2       1 <0>         0.0000
     18 C18         1.7870    5.6084   -0.1036 C.3       1 <0>         0.0000
     19 C19         2.6536    6.7604    0.4554 C.3       1 <0>         0.0000
     20 C20         1.6509    7.8845    0.8270 C.3       1 <0>         0.0000
     21 C21         3.7845   -2.9276    7.1810 C.3       1 <0>         0.0000
     22 C22        -0.3830   -4.8975    8.6045 C.3       1 <0>         0.0000
     23 C23         0.8521    5.2153    4.4136 C.3       1 <0>         0.0000
     24 C24        -0.1064    2.8678    4.0793 C.3       1 <0>         0.0000
     25 C25         2.1133    8.7642    1.9890 C.3       1 <0>         0.0000
     26 C26         0.1433    4.0247    5.0666 C.3       1 <0>         0.0000
     27 C27        -4.4623    3.2518    2.8159 C.3       1 <0>         0.0000
     28 C28        -3.6963    4.5554    2.6362 C.3       1 <0>         0.0000
     29 C29        -3.5759    2.0930    3.2468 C.3       1 <0>         0.0000
     30 N1          1.9180   -1.4269    6.4226 N.2       1 <0>         0.0000
     31 O1          2.0083   -5.1900    8.6068 O.2       1 <0>         0.0000
     32 O2          3.8297    9.7260    0.5653 O.2       1 <0>         0.0000
     33 O3          0.1146   -2.5103    7.1725 O.3       1 <0>         0.0000
     34 O4          3.9412   10.1967    2.7425 O.3       1 <0>         0.0000
     35 O5         -2.6756    4.3290    1.6587 O.3       1 <0>         0.0000
     36 O6         -2.9291    2.4520    4.4844 O.3       1 <0>         0.0000
     37 H1         -2.1090   -1.4347    6.7098 H         1 <0>         0.0000
     38 H2         -0.8600    8.5106    2.2087 H         1 <0>         0.0000
     39 H3         -3.6460    0.3042    5.7917 H         1 <0>         0.0000
     40 H4         -2.7016    6.9139    2.5432 H         1 <0>         0.0000
     41 H5          1.2482    0.7637    5.1678 H         1 <0>         0.0000
     42 H6         -0.5157    3.8797    0.4032 H         1 <0>         0.0000
     43 H7          2.2247    4.6208    0.0715 H         1 <0>         0.0000
     44 H8          1.6508    5.7135   -1.1880 H         1 <0>         0.0000
     45 H9          3.1558    6.4181    1.3692 H         1 <0>         0.0000
     46 H10         3.4225    7.1058   -0.2372 H         1 <0>         0.0000
     47 H11         1.4994    8.5317   -0.0464 H         1 <0>         0.0000
     48 H12         4.2302   -2.9998    6.1833 H         1 <0>         0.0000
     49 H13         4.3188   -2.1367    7.7182 H         1 <0>         0.0000
     50 H14         3.9111   -3.8733    7.7068 H         1 <0>         0.0000
     51 H15        -0.9735   -5.0061    7.6885 H         1 <0>         0.0000
     52 H16        -0.8673   -4.1212    9.2065 H         1 <0>         0.0000
     53 H17        -0.3720   -5.8400    9.1531 H         1 <0>         0.0000
     54 H18         1.8260    4.9175    4.0068 H         1 <0>         0.0000
     55 H19         0.2630    5.6300    3.5927 H         1 <0>         0.0000
     56 H20         1.0248    6.0155    5.1426 H         1 <0>         0.0000
     57 H21         0.8418    2.5973    3.6003 H         1 <0>         0.0000
     58 H22        -0.7785    3.2099    3.2885 H         1 <0>         0.0000
     59 H23         1.3267    9.4784    2.2670 H         1 <0>         0.0000
     60 H24         2.2921    8.1419    2.8759 H         1 <0>         0.0000
     61 H25        -0.8182    4.3428    5.4870 H         1 <0>         0.0000
     62 H26         0.7409    3.6505    5.9068 H         1 <0>         0.0000
     63 H27        -5.2472    3.4143    3.5630 H         1 <0>         0.0000
     64 H28        -4.9518    2.9783    1.8745 H         1 <0>         0.0000
     65 H29        -4.3741    5.3501    2.2985 H         1 <0>         0.0000
     66 H30        -3.2373    4.8607    3.5830 H         1 <0>         0.0000
     67 H31        -2.8132    1.8863    2.4877 H         1 <0>         0.0000
     68 H32        -4.1754    1.1852    3.3921 H         1 <0>         0.0000
     69 H33         3.4546    9.9744    3.5545 H         1 <0>         0.0000
@<TRIPOS>BOND
     1    1    3 ar
     2    1    7 ar
     3    1   37 1
     4    2    4 ar
     5    2    8 ar
     6    2   38 1
     7    3   12 ar
     8    3   39 1
     9    4   11 ar
    10    4   40 1
    11    5    7 ar
    12    5   10 ar
    13    5   41 1
    14    6    9 ar
    15    6   11 ar
    16    6   42 1
    17    7   15 1
    18    8    9 ar
    19    8   20 1
    20    9   18 1
    21   10   12 ar
    22   10   24 1
    23   11   35 1
    24   12   36 1
    25   13   14 2
    26   13   16 1
    27   13   33 1
    28   14   21 1
    29   14   30 1
    30   15   30 2
    31   15   33 1
    32   16   22 1
    33   16   31 2
    34   17   25 1
    35   17   32 2
    36   17   34 1
    37   18   19 1
    38   18   43 1
    39   18   44 1
    40   19   20 1
    41   19   45 1
    42   19   46 1
    43   20   25 1
    44   20   47 1
    45   21   48 1
    46   21   49 1
    47   21   50 1
    48   22   51 1
    49   22   52 1
    50   22   53 1
    51   23   26 1
    52   23   54 1
    53   23   55 1
    54   23   56 1
    55   24   26 1
    56   24   57 1
    57   24   58 1
    58   25   59 1
    59   25   60 1
    60   26   61 1
    61   26   62 1
    62   27   28 1
    63   27   29 1
    64   27   63 1
    65   27   64 1
    66   28   35 1
    67   28   65 1
    68   28   66 1
    69   29   36 1
    70   29   67 1
    71   29   68 1
    72   34   69 1
