@<TRIPOS>MOLECULE
*****
   58    62     0     0     0
SMALL
NO_CHARGES

@<TRIPOS>ATOM
      1 C1         -3.7638   -2.1305   -4.1863 C.ar      1 <0>         0.0000
      2 C2         -3.3935   -2.4089   -2.8647 C.ar      1 <0>         0.0000
      3 C3         -2.8729   -1.4488   -5.0187 C.ar      1 <0>         0.0000
      4 C4         -2.1455   -2.0134   -2.3813 C.ar      1 <0>         0.0000
      5 C5         -1.6210   -1.0570   -4.5311 C.ar      1 <0>         0.0000
      6 C6          1.7180    1.7370   -3.0445 C.ar      1 <0>         0.0000
      7 C7         -0.3212    2.7488   -2.2838 C.ar      1 <0>         0.0000
      8 C8          2.1075    2.9369   -3.6446 C.ar      1 <0>         0.0000
      9 C9          0.0500    3.9528   -2.8782 C.ar      1 <0>         0.0000
     10 C10        -2.1191    1.0899    1.0429 C.ar      1 <0>         0.0000
     11 C11        -0.4942    0.9938    2.8895 C.ar      1 <0>         0.0000
     12 C12        -1.2386   -1.3359   -3.2123 C.ar      1 <0>         0.0000
     13 C13         0.5043    1.6185   -2.3577 C.ar      1 <0>         0.0000
     14 C14         0.1982    0.4101    0.6562 C.ar      1 <0>         0.0000
     15 C15        -1.0838    0.6715    0.2070 C.ar      1 <0>         0.0000
     16 C16         1.2678    4.0568   -3.5626 C.ar      1 <0>         0.0000
     17 C17        -1.7927    1.2453    2.3983 C.ar      1 <0>         0.0000
     18 C18         0.4988    0.5613    2.0075 C.ar      1 <0>         0.0000
     19 C19         0.9951   -1.9936   -2.0487 C.3       1 <0>         0.0000
     20 C20         0.1278   -0.8966   -2.7282 C.3       1 <0>         0.0000
     21 C21         1.0393   -1.6863   -0.5489 C.3       1 <0>         0.0000
     22 C22         0.1029    0.3016   -1.7177 C.3       1 <0>         0.0000
     23 C23         0.9978   -0.1321   -0.4839 C.3       1 <0>         0.0000
     24 C24         2.7795    5.4276   -4.8109 C.3       1 <0>         0.0000
     25 C25        -4.0210    1.9368    2.9311 C.3       1 <0>         0.0000
     26 C26         2.1585    0.4180    3.7349 C.3       1 <0>         0.0000
     27 O1         -1.2276    0.4612   -1.1362 O.3       1 <0>         0.0000
     28 O2         -0.0903   -2.2176    0.1567 O.3       1 <0>         0.0000
     29 O3          2.3274    0.3609   -0.6009 O.3       1 <0>         0.0000
     30 O4          1.5480    5.2814   -4.1143 O.3       1 <0>         0.0000
     31 O5         -2.6882    1.6581    3.3489 O.3       1 <0>         0.0000
     32 O6          1.7953    0.2663    2.3631 O.3       1 <0>         0.0000
     33 H1         -4.7369   -2.4395   -4.5603 H         1 <0>         0.0000
     34 H2         -4.0852   -2.9296   -2.2064 H         1 <0>         0.0000
     35 H3         -3.1484   -1.2227   -6.0459 H         1 <0>         0.0000
     36 H4         -1.8742   -2.2050   -1.3484 H         1 <0>         0.0000
     37 H5         -0.9340   -0.5226   -5.1840 H         1 <0>         0.0000
     38 H6          2.3942    0.8896   -3.0987 H         1 <0>         0.0000
     39 H7         -1.2712    2.6837   -1.7667 H         1 <0>         0.0000
     40 H8          3.0601    2.9840   -4.1605 H         1 <0>         0.0000
     41 H9         -0.5943    4.8257   -2.8245 H         1 <0>         0.0000
     42 H10        -3.1065    1.2797    0.6424 H         1 <0>         0.0000
     43 H11        -0.3157    1.1467    3.9465 H         1 <0>         0.0000
     44 H12         0.6251   -3.0032   -2.2522 H         1 <0>         0.0000
     45 H13         2.0155   -1.9356   -2.4412 H         1 <0>         0.0000
     46 H14         0.6630   -0.5454   -3.6100 H         1 <0>         0.0000
     47 H15         1.9668   -2.0370   -0.0805 H         1 <0>         0.0000
     48 H16         2.8045    6.4604   -5.1621 H         1 <0>         0.0000
     49 H17         2.8365    4.7507   -5.6729 H         1 <0>         0.0000
     50 H18         3.6379    5.2484   -4.1511 H         1 <0>         0.0000
     51 H19        -4.5575    2.2427    3.8303 H         1 <0>         0.0000
     52 H20        -4.5005    1.0467    2.5059 H         1 <0>         0.0000
     53 H21        -4.0470    2.7514    2.1970 H         1 <0>         0.0000
     54 H22         3.2100    0.1352    3.8009 H         1 <0>         0.0000
     55 H23         1.5610   -0.2421    4.3737 H         1 <0>         0.0000
     56 H24         2.0371    1.4569    4.0624 H         1 <0>         0.0000
     57 H25        -0.0634   -3.1821    0.0570 H         1 <0>         0.0000
     58 H26         2.6706    0.4363    0.3059 H         1 <0>         0.0000
@<TRIPOS>BOND
     1    1    3 ar
     2    1    2 ar
     3    1   33 1
     4    2    4 ar
     5    2   34 1
     6    3    5 ar
     7    3   35 1
     8    4   12 ar
     9    4   36 1
    10    5   12 ar
    11    5   37 1
    12    6    8 ar
    13    6   13 ar
    14    6   38 1
    15    7    9 ar
    16    7   13 ar
    17    7   39 1
    18    8   16 ar
    19    8   40 1
    20    9   16 ar
    21    9   41 1
    22   10   15 ar
    23   10   17 ar
    24   10   42 1
    25   11   17 ar
    26   11   18 ar
    27   11   43 1
    28   12   20 1
    29   13   22 1
    30   14   15 ar
    31   14   18 ar
    32   14   23 1
    33   15   27 1
    34   16   30 1
    35   17   31 1
    36   18   32 1
    37   19   20 1
    38   19   21 1
    39   19   44 1
    40   19   45 1
    41   20   22 1
    42   20   46 1
    43   21   23 1
    44   21   28 1
    45   21   47 1
    46   22   23 1
    47   22   27 1
    48   23   29 1
    49   24   30 1
    50   24   48 1
    51   24   49 1
    52   24   50 1
    53   25   31 1
    54   25   51 1
    55   25   52 1
    56   25   53 1
    57   26   32 1
    58   26   54 1
    59   26   55 1
    60   26   56 1
    61   28   57 1
    62   29   58 1
