@<TRIPOS>MOLECULE
*****
   17    17     0     0     0
SMALL
NO_CHARGES

@<TRIPOS>ATOM
      1 C1          1.8851   -1.0363   -0.1124 C.ar      1 <0>         0.0000
      2 C2          1.7997   -1.0786    2.6757 C.ar      1 <0>         0.0000
      3 C3          0.8066   -0.4630    0.5610 C.ar      1 <0>         0.0000
      4 C4          2.8783   -1.6520    2.0022 C.ar      1 <0>         0.0000
      5 C5          2.9210   -1.6309    0.6081 C.ar      1 <0>         0.0000
      6 C6          0.7638   -0.4841    1.9551 C.ar      1 <0>         0.0000
      7 C7         -1.2694   -0.7313   -0.5678 C.3       1 <0>         0.0000
      8 O1          3.8890   -2.2316    2.7059 O.3       1 <0>         0.0000
      9 O2         -0.1846    0.1087   -0.1803 O.3       1 <0>         0.0000
     10 F1          3.9550   -2.1797   -0.0442 F         1 <0>         0.0000
     11 I1         -0.8299    0.3593    3.0117 I         1 <0>         0.0000
     12 H1          1.9262   -1.0250   -1.1982 H         1 <0>         0.0000
     13 H2          1.7828   -1.1048    3.7628 H         1 <0>         0.0000
     14 H3         -1.9884   -0.1526   -1.1529 H         1 <0>         0.0000
     15 H4         -1.7528   -1.1383    0.3240 H         1 <0>         0.0000
     16 H5         -0.8835   -1.5519   -1.1773 H         1 <0>         0.0000
     17 H6          4.5615   -2.5832    2.1009 H         1 <0>         0.0000
@<TRIPOS>BOND
     1    1    3 ar
     2    1    5 ar
     3    1   12 1
     4    2    4 ar
     5    2    6 ar
     6    2   13 1
     7    3    6 ar
     8    3    9 1
     9    4    5 ar
    10    4    8 1
    11    5   10 1
    12    6   11 1
    13    7    9 1
    14    7   14 1
    15    7   15 1
    16    7   16 1
    17    8   17 1
