@<TRIPOS>MOLECULE
*****
   25    24     0     0     0
SMALL
NO_CHARGES

@<TRIPOS>ATOM
      1 C1         -0.0652    0.0126   -0.0135 C.2       1 <0>         0.0000
      2 C2          2.3961   -0.6161   -2.6314 C.3       1 <0>         0.0000
      3 C3          0.9173    1.7242    2.8180 C.3       1 <0>         0.0000
      4 C4         -3.5219    0.0184   -0.6653 C.3       1 <0>         0.0000
      5 C5          1.0287   -0.2996   -2.0642 C.3       1 <0>         0.0000
      6 C6         -0.2977    1.2516    2.0485 C.3       1 <0>         0.0000
      7 C7         -2.3104    0.5019    0.0974 C.3       1 <0>         0.0000
      8 O1          1.1129   -0.2651   -0.6386 O.3       1 <0>         0.0000
      9 O2          0.0333    0.0421    1.3483 O.3       1 <0>         0.0000
     10 O3         -1.1661    0.2265   -0.6651 O.3       1 <0>         0.0000
     11 H1          3.1243    0.1471   -2.3432 H         1 <0>         0.0000
     12 H2          2.7457   -1.5907   -2.2751 H         1 <0>         0.0000
     13 H3          2.3570   -0.6721   -3.7243 H         1 <0>         0.0000
     14 H4          1.2330    0.9737    3.5480 H         1 <0>         0.0000
     15 H5          1.7503    1.9276    2.1372 H         1 <0>         0.0000
     16 H6          0.7007    2.6597    3.3444 H         1 <0>         0.0000
     17 H7         -3.6005    0.5361   -1.6261 H         1 <0>         0.0000
     18 H8         -3.4400   -1.0528   -0.8736 H         1 <0>         0.0000
     19 H9         -4.4376    0.1958   -0.0945 H         1 <0>         0.0000
     20 H10         0.3052   -1.0667   -2.3561 H         1 <0>         0.0000
     21 H11         0.6814    0.6748   -2.4205 H         1 <0>         0.0000
     22 H12        -0.6083    2.0067    1.3202 H         1 <0>         0.0000
     23 H13        -1.1288    1.0480    2.7302 H         1 <0>         0.0000
     24 H14        -2.2248   -0.0112    1.0596 H         1 <0>         0.0000
     25 H15        -2.3652    1.5801    0.2738 H         1 <0>         0.0000
@<TRIPOS>BOND
     1    1    8 1
     2    1    9 1
     3    1   10 2
     4    2    5 1
     5    2   11 1
     6    2   12 1
     7    2   13 1
     8    3    6 1
     9    3   14 1
    10    3   15 1
    11    3   16 1
    12    4    7 1
    13    4   17 1
    14    4   18 1
    15    4   19 1
    16    5    8 1
    17    5   20 1
    18    5   21 1
    19    6    9 1
    20    6   22 1
    21    6   23 1
    22    7   10 1
    23    7   24 1
    24    7   25 1
