@<TRIPOS>MOLECULE
*****
   15    15     0     0     0
SMALL
NO_CHARGES

@<TRIPOS>ATOM
      1 C1         -0.2528    0.8087   -2.0577 C.2       1 <0>         0.0000
      2 C2         -0.4682   -0.0882   -0.9718 C.2       1 <0>         0.0000
      3 C3         -0.9783    0.4538   -3.1737 C.2       1 <0>         0.0000
      4 C4         -1.3504   -1.0945   -1.2990 C.2       1 <0>         0.0000
      5 C5         -1.8295   -2.2094   -0.4535 C.3       1 <0>         0.0000
      6 N1         -2.5079   -1.7561    0.7399 N.3       1 <0>         0.0000
      7 O1         -3.7646   -1.1822    0.2875 O.3       1 <0>         0.0000
      8 S1         -1.9146   -0.9556   -2.9098 S.3       1 <0>         0.0000
      9 H1          0.4002    1.6709   -2.0228 H         1 <0>         0.0000
     10 H2          0.0016    0.0052   -0.0008 H         1 <0>         0.0000
     11 H3         -1.0031    0.9544   -4.1313 H         1 <0>         0.0000
     12 H4         -2.5365   -2.8596   -0.9969 H         1 <0>         0.0000
     13 H5         -1.0049   -2.8630   -0.1217 H         1 <0>         0.0000
     14 H6         -2.8286   -2.5447    1.3060 H         1 <0>         0.0000
     15 H7         -4.1594   -0.9034    1.1319 H         1 <0>         0.0000
@<TRIPOS>BOND
     1    1    2 1
     2    1    3 2
     3    1    9 1
     4    2    4 2
     5    2   10 1
     6    3    8 1
     7    3   11 1
     8    4    5 1
     9    4    8 1
    10    5    6 1
    11    5   12 1
    12    5   13 1
    13    6    7 1
    14    6   14 1
    15    7   15 1
