@<TRIPOS>MOLECULE
*****
   35    35     0     0     0
SMALL
NO_CHARGES

@<TRIPOS>ATOM
      1 C1         -0.3952    0.0241   -0.5418 C.1       1 <0>         0.0000
      2 C2         -1.2865    0.5418   -1.1858 C.1       1 <0>         0.0000
      3 C3          1.7568   -1.1729   -0.4202 C.ar      1 <0>         0.0000
      4 C4          0.6040   -0.6082    1.6214 C.ar      1 <0>         0.0000
      5 C5          0.6546   -0.5831    0.2187 C.ar      1 <0>         0.0000
      6 C6          2.7872   -1.7745    0.3072 C.ar      1 <0>         0.0000
      7 C7          1.6179   -1.2013    2.3778 C.ar      1 <0>         0.0000
      8 C8          2.7221   -1.7853    1.7180 C.ar      1 <0>         0.0000
      9 C9          3.4567   -3.8710    2.9124 C.2       1 <0>         0.0000
     10 C10        -2.3620    1.1648   -1.9610 C.3       1 <0>         0.0000
     11 C11         5.1140   -1.3236   -0.6033 C.3       1 <0>         0.0000
     12 C12         2.2032    0.1138    4.4660 C.3       1 <0>         0.0000
     13 C13         3.8253   -2.4472    2.5382 C.3       1 <0>         0.0000
     14 C14         3.9657   -2.3403   -0.4623 C.3       1 <0>         0.0000
     15 C15         1.5123   -1.1368    3.8902 C.3       1 <0>         0.0000
     16 O1          3.0040   -4.2291    3.9821 O.2       1 <0>         0.0000
     17 O2          3.6739   -4.7445    1.8915 O.3       1 <0>         0.0000
     18 H1          1.8040   -1.1604   -1.5059 H         1 <0>         0.0000
     19 H2         -0.2465   -0.1572    2.1259 H         1 <0>         0.0000
     20 H3         -2.6780    2.1090   -1.5044 H         1 <0>         0.0000
     21 H4         -2.0350    1.3769   -2.9844 H         1 <0>         0.0000
     22 H5         -3.2374    0.5082   -2.0159 H         1 <0>         0.0000
     23 H6          4.7729   -0.4252   -1.1278 H         1 <0>         0.0000
     24 H7          5.9498   -1.7531   -1.1662 H         1 <0>         0.0000
     25 H8          5.4930   -1.0055    0.3739 H         1 <0>         0.0000
     26 H9          3.2707    0.1325    4.2210 H         1 <0>         0.0000
     27 H10         2.1075    0.1440    5.5567 H         1 <0>         0.0000
     28 H11         1.7589    1.0269    4.0567 H         1 <0>         0.0000
     29 H12         3.9971   -1.9100    3.4699 H         1 <0>         0.0000
     30 H13         4.7634   -2.4656    1.9834 H         1 <0>         0.0000
     31 H14         4.3304   -3.2590    0.0023 H         1 <0>         0.0000
     32 H15         3.6246   -2.6245   -1.4633 H         1 <0>         0.0000
     33 H16         0.4527   -1.1103    4.1654 H         1 <0>         0.0000
     34 H17         1.9226   -2.0364    4.3533 H         1 <0>         0.0000
     35 H18         3.3689   -5.6168    2.2087 H         1 <0>         0.0000
@<TRIPOS>BOND
     1    1    2 3
     2    1    5 1
     3    2   10 1
     4    3    5 ar
     5    3    6 ar
     6    3   18 1
     7    4    5 ar
     8    4    7 ar
     9    4   19 1
    10    6    8 ar
    11    6   14 1
    12    7    8 ar
    13    7   15 1
    14    8   13 1
    15    9   13 1
    16    9   16 2
    17    9   17 1
    18   10   20 1
    19   10   21 1
    20   10   22 1
    21   11   14 1
    22   11   23 1
    23   11   24 1
    24   11   25 1
    25   12   15 1
    26   12   26 1
    27   12   27 1
    28   12   28 1
    29   13   29 1
    30   13   30 1
    31   14   31 1
    32   14   32 1
    33   15   33 1
    34   15   34 1
    35   17   35 1
