@<TRIPOS>MOLECULE
*****
   27    28     0     0     0
SMALL
NO_CHARGES

@<TRIPOS>ATOM
      1 C1         -2.1032    1.2707   -1.5950 C.ar      1 <0>         0.0000
      2 C2         -1.7631    2.2591   -0.6628 C.ar      1 <0>         0.0000
      3 C3         -1.3714    0.0833   -1.6544 C.ar      1 <0>         0.0000
      4 C4         -0.6978    2.0716    0.2232 C.ar      1 <0>         0.0000
      5 C5         -0.3053   -0.0946   -0.7725 C.ar      1 <0>         0.0000
      6 C6          0.0280    0.8858    0.1677 C.ar      1 <0>         0.0000
      7 C7          1.3529   -1.5644    0.1630 C.cat     1 <0>         0.0000
      8 C8          1.3963   -0.6390    1.3700 C.3       1 <0>         0.0000
      9 C9          0.4680   -1.1093    2.5059 C.3       1 <0>         0.0000
     10 C10         0.7549   -2.5400    2.9663 C.3       1 <0>         0.0000
     11 N1          0.5098   -1.2647   -0.8114 N.pl3     1 <0>         0.0000
     12 N2          2.1513   -2.6236    0.1477 N.pl3     1 <0>         0.0000
     13 O1          1.1276    0.7040    0.9782 O.3       1 <0>         0.0000
     14 O2          2.1863   -2.7365    2.9836 O.3       1 <0>         0.0000
     15 H1         -2.9345    1.4234   -2.2754 H         1 <0>         0.0000
     16 H2         -2.3331    3.1821   -0.6219 H         1 <0>         0.0000
     17 H3         -1.6245   -0.6883   -2.3777 H         1 <0>         0.0000
     18 H4         -0.4177    2.8298    0.9477 H         1 <0>         0.0000
     19 H5          2.4230   -0.6257    1.7352 H         1 <0>         0.0000
     20 H6         -0.5796   -1.0292    2.1981 H         1 <0>         0.0000
     21 H7          0.6284   -0.4052    3.3269 H         1 <0>         0.0000
     22 H8          0.3317   -2.6953    3.9624 H         1 <0>         0.0000
     23 H9          0.2957   -3.2713    2.2884 H         1 <0>         0.0000
     24 H10         0.4363   -1.8627   -1.6314 H         1 <0>         0.0000
     25 H11         2.6157   -2.8739    1.0273 H         1 <0>         0.0000
     26 H12         2.1384   -3.3081   -0.6022 H         1 <0>         0.0000
     27 H13         2.4159   -3.4109    3.6424 H         1 <0>         0.0000
@<TRIPOS>BOND
     1    1    2 ar
     2    1    3 ar
     3    1   15 1
     4    2    4 ar
     5    2   16 1
     6    3    5 ar
     7    3   17 1
     8    4    6 ar
     9    4   18 1
    10    5    6 ar
    11    5   11 1
    12    6   13 1
    13    7    8 1
    14    7   11 1
    15    7   12 2
    16    8    9 1
    17    8   13 1
    18    8   19 1
    19    9   10 1
    20    9   20 1
    21    9   21 1
    22   10   14 1
    23   10   22 1
    24   10   23 1
    25   11   24 1
    26   12   25 1
    27   12   26 1
    28   14   27 1
