@<TRIPOS>MOLECULE
*****
   27    28     0     0     0
SMALL
NO_CHARGES

@<TRIPOS>ATOM
      1 C1         -2.2047    1.2265   -1.8281 C.ar      1 <0>         0.0000
      2 C2         -2.0537    2.1859   -0.8196 C.ar      1 <0>         0.0000
      3 C3         -1.3221    0.1465   -1.9029 C.ar      1 <0>         0.0000
      4 C4         -1.0298    2.0743    0.1269 C.ar      1 <0>         0.0000
      5 C5         -0.3001    0.0453   -0.9606 C.ar      1 <0>         0.0000
      6 C6         -0.1559    0.9946    0.0535 C.ar      1 <0>         0.0000
      7 C7          1.4201   -1.3014    0.0307 C.cat     1 <0>         0.0000
      8 C8          1.3733   -0.4044    1.2605 C.3       1 <0>         0.0000
      9 C9          0.6251   -1.0361    2.4519 C.3       1 <0>         0.0000
     10 C10        -0.8415   -1.3701    2.2197 C.3       1 <0>         0.0000
     11 N1          0.6538   -1.0088   -1.0012 N.pl3     1 <0>         0.0000
     12 N2          2.2716   -2.3233    0.0187 N.pl3     1 <0>         0.0000
     13 O1          0.8986    0.8999    0.9362 O.3       1 <0>         0.0000
     14 O2         -0.9003   -2.3340    1.1591 O.3       1 <0>         0.0000
     15 H1         -3.0037    1.3190   -2.5563 H         1 <0>         0.0000
     16 H2         -2.7375    3.0274   -0.7668 H         1 <0>         0.0000
     17 H3         -1.4275   -0.6025   -2.6843 H         1 <0>         0.0000
     18 H4         -0.8954    2.8124    0.9115 H         1 <0>         0.0000
     19 H5          2.4123   -0.2450    1.5661 H         1 <0>         0.0000
     20 H6          0.7082   -0.3208    3.2755 H         1 <0>         0.0000
     21 H7          1.1543   -1.9456    2.7592 H         1 <0>         0.0000
     22 H8         -1.2551   -1.7834    3.1473 H         1 <0>         0.0000
     23 H9         -1.4128   -0.4704    1.9621 H         1 <0>         0.0000
     24 H10         0.6524   -1.6106   -1.8209 H         1 <0>         0.0000
     25 H11         2.2884   -3.0128   -0.7259 H         1 <0>         0.0000
     26 H12         2.8381   -2.5241    0.8344 H         1 <0>         0.0000
     27 H13        -1.8211   -2.6171    1.0438 H         1 <0>         0.0000
@<TRIPOS>BOND
     1    1    2 ar
     2    1    3 ar
     3    1   15 1
     4    2    4 ar
     5    2   16 1
     6    3    5 ar
     7    3   17 1
     8    4    6 ar
     9    4   18 1
    10    5    6 ar
    11    5   11 1
    12    6   13 1
    13    7    8 1
    14    7   11 2
    15    7   12 1
    16    8    9 1
    17    8   13 1
    18    8   19 1
    19    9   10 1
    20    9   20 1
    21    9   21 1
    22   10   14 1
    23   10   22 1
    24   10   23 1
    25   11   24 1
    26   12   25 1
    27   12   26 1
    28   14   27 1
