@<TRIPOS>MOLECULE
*****
   56    58     0     0     0
SMALL
NO_CHARGES

@<TRIPOS>ATOM
      1 C1          3.6226   -1.2781    1.2522 C.ar      1 <0>         0.0000
      2 C2          2.9515   -0.0767    1.0269 C.ar      1 <0>         0.0000
      3 C3         -3.0692    1.0887   -0.3439 C.ar      1 <0>         0.0000
      4 C4         -2.6948    1.8064    1.9086 C.ar      1 <0>         0.0000
      5 C5          1.1951   -1.2985   -0.1237 C.ar      1 <0>         0.0000
      6 C6         -1.6983    1.0282   -0.5803 C.ar      1 <0>         0.0000
      7 C7          3.1039   -2.4987    0.8096 C.ar      1 <0>         0.0000
      8 C8         -3.5926    1.5048    0.8865 C.ar      1 <0>         0.0000
      9 C9         -1.3096    1.7333    1.7196 C.ar      1 <0>         0.0000
     10 C10         1.8651   -2.5031    0.1504 C.ar      1 <0>         0.0000
     11 C11         1.7522   -0.0838    0.3156 C.ar      1 <0>         0.0000
     12 C12        -0.7918    1.3826    0.4492 C.ar      1 <0>         0.0000
     13 C13        -0.1135   -1.2850   -0.8418 C.2       1 <0>         0.0000
     14 C14        -1.2502    0.5028   -1.9299 C.3       1 <0>         0.0000
     15 C15        -5.0830    1.5510    1.1177 C.3       1 <0>         0.0000
     16 C16         6.1351   -3.5880   -2.2361 C.3       1 <0>         0.0000
     17 C17         4.0621   -5.0004   -1.9248 C.3       1 <0>         0.0000
     18 C18         0.1222    0.9728    3.4543 C.3       1 <0>         0.0000
     19 C19         0.4924   -4.3769    0.6229 C.3       1 <0>         0.0000
     20 C20         5.1296   -3.7977    0.0598 C.3       1 <0>         0.0000
     21 C21         3.9076   -3.7680    0.9956 C.3       1 <0>         0.0000
     22 C22         4.8277   -3.7566   -1.4486 C.3       1 <0>         0.0000
     23 O1         -1.0893   -1.9589   -0.5871 O.2       1 <0>         0.0000
     24 O2          1.1209    2.0516   -1.2932 O.2       1 <0>         0.0000
     25 O3          1.5925    2.3974    1.1529 O.2       1 <0>         0.0000
     26 O4         -0.0696   -0.3078   -1.7796 O.3       1 <0>         0.0000
     27 O5          4.3248   -3.7959    2.3733 O.3       1 <0>         0.0000
     28 O6         -0.5416    2.0628    2.8008 O.3       1 <0>         0.0000
     29 O7          1.3403   -3.6856   -0.3178 O.3       1 <0>         0.0000
     30 S1          0.9895    1.5843    0.0910 S.o2      1 <0>         0.0000
     31 H1          4.5620   -1.2769    1.7965 H         1 <0>         0.0000
     32 H2          3.3425    0.8614    1.4053 H         1 <0>         0.0000
     33 H3         -3.7484    0.7803   -1.1355 H         1 <0>         0.0000
     34 H4         -3.0437    2.1056    2.8933 H         1 <0>         0.0000
     35 H5         -2.0538   -0.0753   -2.3907 H         1 <0>         0.0000
     36 H6         -0.9331    1.3064   -2.5948 H         1 <0>         0.0000
     37 H7         -5.4573    0.5623    1.4087 H         1 <0>         0.0000
     38 H8         -5.3415    2.2515    1.9162 H         1 <0>         0.0000
     39 H9         -5.6169    1.8500    0.2111 H         1 <0>         0.0000
     40 H10         6.8055   -4.4408   -2.0712 H         1 <0>         0.0000
     41 H11         5.9385   -3.5237   -3.3116 H         1 <0>         0.0000
     42 H12         6.6687   -2.6790   -1.9373 H         1 <0>         0.0000
     43 H13         4.6298   -5.9136   -1.7040 H         1 <0>         0.0000
     44 H14         3.0789   -5.0786   -1.4546 H         1 <0>         0.0000
     45 H15         3.9048   -4.9631   -3.0082 H         1 <0>         0.0000
     46 H16         0.7553    1.4217    4.2203 H         1 <0>         0.0000
     47 H17         0.7486    0.4012    2.7650 H         1 <0>         0.0000
     48 H18        -0.6150    0.3057    3.9190 H         1 <0>         0.0000
     49 H19         0.2263   -5.3216    0.1458 H         1 <0>         0.0000
     50 H20        -0.4087   -3.7905    0.8171 H         1 <0>         0.0000
     51 H21         1.0317   -4.5714    1.5575 H         1 <0>         0.0000
     52 H22         5.7017   -4.7126    0.2785 H         1 <0>         0.0000
     53 H23         5.7730   -2.9515    0.3296 H         1 <0>         0.0000
     54 H24         3.2713   -4.6325    0.7880 H         1 <0>         0.0000
     55 H25         4.2033   -2.8757   -1.6455 H         1 <0>         0.0000
     56 H26         4.9555   -4.5270    2.4729 H         1 <0>         0.0000
@<TRIPOS>BOND
     1    1    2 ar
     2    1    7 ar
     3    1   31 1
     4    2   11 ar
     5    2   32 1
     6    3    6 ar
     7    3    8 ar
     8    3   33 1
     9    4    8 ar
    10    4    9 ar
    11    4   34 1
    12    5   10 ar
    13    5   11 ar
    14    5   13 1
    15    6   12 ar
    16    6   14 1
    17    7   10 ar
    18    7   21 1
    19    8   15 1
    20    9   12 ar
    21    9   28 1
    22   10   29 1
    23   11   30 1
    24   12   30 1
    25   13   23 2
    26   13   26 1
    27   14   26 1
    28   14   35 1
    29   14   36 1
    30   15   37 1
    31   15   38 1
    32   15   39 1
    33   16   22 1
    34   16   40 1
    35   16   41 1
    36   16   42 1
    37   17   22 1
    38   17   43 1
    39   17   44 1
    40   17   45 1
    41   18   28 1
    42   18   46 1
    43   18   47 1
    44   18   48 1
    45   19   29 1
    46   19   49 1
    47   19   50 1
    48   19   51 1
    49   20   21 1
    50   20   22 1
    51   20   52 1
    52   20   53 1
    53   21   27 1
    54   21   54 1
    55   22   55 1
    56   24   30 2
    57   25   30 2
    58   27   56 1
