@<TRIPOS>MOLECULE
*****
   27    28     0     0     0
SMALL
NO_CHARGES

@<TRIPOS>ATOM
      1 C1         -2.1854    1.4877   -1.6528 C.ar      1 <0>         0.0000
      2 C2         -1.8703    2.4031   -0.6413 C.ar      1 <0>         0.0000
      3 C3         -1.4247    0.3264   -1.8062 C.ar      1 <0>         0.0000
      4 C4         -0.8022    2.1666    0.2305 C.ar      1 <0>         0.0000
      5 C5         -0.3576    0.1007   -0.9383 C.ar      1 <0>         0.0000
      6 C6         -0.0499    1.0064    0.0791 C.ar      1 <0>         0.0000
      7 C7          1.2785   -1.4353   -0.0904 C.cat     1 <0>         0.0000
      8 C8          1.4058   -0.5674    1.1545 C.3       1 <0>         0.0000
      9 C9          0.6782   -1.1484    2.3839 C.3       1 <0>         0.0000
     10 C10        -0.8270   -1.3275    2.2477 C.3       1 <0>         0.0000
     11 N1          0.4788   -1.0429   -1.0620 N.pl3     1 <0>         0.0000
     12 N2          2.0185   -2.5372   -0.1779 N.pl3     1 <0>         0.0000
     13 O1          1.0460    0.7853    0.8854 O.3       1 <0>         0.0000
     14 O2         -1.0546   -2.2553    1.1778 O.3       1 <0>         0.0000
     15 H1         -3.0176    1.6773   -2.3227 H         1 <0>         0.0000
     16 H2         -2.4596    3.3077   -0.5275 H         1 <0>         0.0000
     17 H3         -1.6579   -0.3896   -2.5909 H         1 <0>         0.0000
     18 H4         -0.5411    2.8687    1.0162 H         1 <0>         0.0000
     19 H5          2.4737   -0.5207    1.3905 H         1 <0>         0.0000
     20 H6          0.8887   -0.4648    3.2117 H         1 <0>         0.0000
     21 H7          1.1312   -2.1136    2.6388 H         1 <0>         0.0000
     22 H8         -1.2178   -1.7188    3.1945 H         1 <0>         0.0000
     23 H9         -1.3194   -0.3690    2.0451 H         1 <0>         0.0000
     24 H10         0.3613   -1.6220   -1.8896 H         1 <0>         0.0000
     25 H11         1.9151   -3.2072   -0.9334 H         1 <0>         0.0000
     26 H12         2.6148   -2.8132    0.5934 H         1 <0>         0.0000
     27 H13        -2.0051   -2.4414    1.1214 H         1 <0>         0.0000
@<TRIPOS>BOND
     1    1    2 ar
     2    1    3 ar
     3    1   15 1
     4    2    4 ar
     5    2   16 1
     6    3    5 ar
     7    3   17 1
     8    4    6 ar
     9    4   18 1
    10    5    6 ar
    11    5   11 1
    12    6   13 1
    13    7    8 1
    14    7   11 1
    15    7   12 2
    16    8    9 1
    17    8   13 1
    18    8   19 1
    19    9   10 1
    20    9   20 1
    21    9   21 1
    22   10   14 1
    23   10   22 1
    24   10   23 1
    25   11   24 1
    26   12   25 1
    27   12   26 1
    28   14   27 1
