@<TRIPOS>MOLECULE
*****
   46    49     0     0     0
SMALL
NO_CHARGES

@<TRIPOS>ATOM
      1 C1         -7.1813    2.0950    2.7107 C.ar      1 <0>         0.0000
      2 C2         -7.3147   -0.2987    2.4736 C.ar      1 <0>         0.0000
      3 C3         -7.3894    2.2558    1.3392 C.ar      1 <0>         0.0000
      4 C4         -7.5213   -0.1631    1.0977 C.ar      1 <0>         0.0000
      5 C5         -7.1388    0.8224    3.2970 C.ar      1 <0>         0.0000
      6 C6         -7.5500    1.1174    0.5564 C.ar      1 <0>         0.0000
      7 C7         -4.2777   -2.1877    3.2057 C.2       1 <0>         0.0000
      8 C8         -4.0158    0.0299    2.9137 C.2       1 <0>         0.0000
      9 C9         -1.6330   -1.0632    1.2734 C.2       1 <0>         0.0000
     10 C10        -4.2168   -3.6395    2.8521 C.3       1 <0>         0.0000
     11 C11        -3.1366   -3.8874    1.7847 C.3       1 <0>         0.0000
     12 C12        -3.2827   -2.8902    0.6255 C.3       1 <0>         0.0000
     13 C13         0.1500    0.5746    0.6373 C.3       1 <0>         0.0000
     14 C14        -1.8168    1.0829   -0.1588 C.3       1 <0>         0.0000
     15 C15        -3.1169   -1.4256    1.0782 C.3       1 <0>         0.0000
     16 C16        -0.4478    1.7873   -0.0999 C.3       1 <0>         0.0000
     17 C17        -6.7945    0.6494    4.7585 C.3       1 <0>         0.0000
     18 C18        -5.2666    0.6647    4.9835 C.3       1 <0>         0.0000
     19 N1         -4.7752   -1.6530    4.2870 N.2       1 <0>         0.0000
     20 N2         -3.8195   -1.2238    2.3336 N.am      1 <0>         0.0000
     21 N3         -4.5873   -0.2827    4.1237 N.am      1 <0>         0.0000
     22 N4         -1.1475   -0.1022    0.4434 N.am      1 <0>         0.0000
     23 O1         -3.7183    1.1267    2.4336 O.2       1 <0>         0.0000
     24 O2         -0.9241   -1.6489    2.0905 O.2       1 <0>         0.0000
     25 F1         -7.7435    1.2609   -0.7831 F         1 <0>         0.0000
     26 F2          0.1110    2.0274   -1.3267 F         1 <0>         0.0000
     27 F3         -0.4229    2.9626    0.5875 F         1 <0>         0.0000
     28 H1         -7.0335    2.9772    3.3293 H         1 <0>         0.0000
     29 H2         -7.2765   -1.2925    2.9122 H         1 <0>         0.0000
     30 H3         -7.4181    3.2378    0.8770 H         1 <0>         0.0000
     31 H4         -7.6603   -1.0259    0.4529 H         1 <0>         0.0000
     32 H5         -4.0346   -4.2222    3.7583 H         1 <0>         0.0000
     33 H6         -5.1970   -3.9470    2.4643 H         1 <0>         0.0000
     34 H7         -2.1432   -3.7863    2.2276 H         1 <0>         0.0000
     35 H8         -3.2320   -4.9080    1.4017 H         1 <0>         0.0000
     36 H9         -2.5485   -3.0977   -0.1581 H         1 <0>         0.0000
     37 H10        -4.2763   -2.9955    0.1729 H         1 <0>         0.0000
     38 H11         0.9903    0.0928    0.1327 H         1 <0>         0.0000
     39 H12         0.3826    0.7587    1.6893 H         1 <0>         0.0000
     40 H13        -2.5719    1.5244    0.4961 H         1 <0>         0.0000
     41 H14        -2.1933    0.9212   -1.1718 H         1 <0>         0.0000
     42 H15        -3.5656   -0.7590    0.3377 H         1 <0>         0.0000
     43 H16        -7.1920   -0.2992    5.1305 H         1 <0>         0.0000
     44 H17        -7.2350    1.4495    5.3636 H         1 <0>         0.0000
     45 H18        -4.8499    1.6446    4.7399 H         1 <0>         0.0000
     46 H19        -5.0280    0.4299    6.0247 H         1 <0>         0.0000
@<TRIPOS>BOND
     1    1    3 ar
     2    1    5 ar
     3    1   28 1
     4    2    4 ar
     5    2    5 ar
     6    2   29 1
     7    3    6 ar
     8    3   30 1
     9    4    6 ar
    10    4   31 1
    11    5   17 1
    12    6   25 1
    13    7   10 1
    14    7   19 2
    15    7   20 1
    16    8   20 am
    17    8   21 am
    18    8   23 2
    19    9   15 1
    20    9   22 am
    21    9   24 2
    22   10   11 1
    23   10   32 1
    24   10   33 1
    25   11   12 1
    26   11   34 1
    27   11   35 1
    28   12   15 1
    29   12   36 1
    30   12   37 1
    31   13   16 1
    32   13   22 1
    33   13   38 1
    34   13   39 1
    35   14   16 1
    36   14   22 1
    37   14   40 1
    38   14   41 1
    39   15   20 1
    40   15   42 1
    41   16   26 1
    42   16   27 1
    43   17   18 1
    44   17   43 1
    45   17   44 1
    46   18   21 1
    47   18   45 1
    48   18   46 1
    49   19   21 1
