@<TRIPOS>MOLECULE
*****
   46    49     0     0     0
SMALL
NO_CHARGES

@<TRIPOS>ATOM
      1 C1         -2.6165    0.0747    7.1753 C.ar      1 <0>         0.0000
      2 C2         -1.5301   -0.0490    5.0288 C.ar      1 <0>         0.0000
      3 C3         -1.8086   -0.9594    7.6549 C.ar      1 <0>         0.0000
      4 C4         -0.7206   -1.0943    5.4793 C.ar      1 <0>         0.0000
      5 C5         -2.4927    0.5410    5.8591 C.ar      1 <0>         0.0000
      6 C6         -0.8793   -1.5296    6.7897 C.ar      1 <0>         0.0000
      7 C7         -3.9140   -2.2221    3.4658 C.2       1 <0>         0.0000
      8 C8         -3.9007   -0.1179    2.6686 C.2       1 <0>         0.0000
      9 C9         -1.3968   -1.2177    1.3030 C.2       1 <0>         0.0000
     10 C10        -3.6463   -3.6919    3.4770 C.3       1 <0>         0.0000
     11 C11        -2.4876   -4.0232    2.5209 C.3       1 <0>         0.0000
     12 C12        -2.7235   -3.3812    1.1454 C.3       1 <0>         0.0000
     13 C13         0.1514    0.4520    0.2617 C.3       1 <0>         0.0000
     14 C14        -1.8410    0.4474   -0.6263 C.3       1 <0>         0.0000
     15 C15        -2.8015   -1.8418    1.2112 C.3       1 <0>         0.0000
     16 C16        -0.5844    1.3277   -0.7696 C.3       1 <0>         0.0000
     17 C17        -3.4509    1.5645    5.2972 C.3       1 <0>         0.0000
     18 C18        -4.7558    0.9114    4.7864 C.3       1 <0>         0.0000
     19 N1         -4.4696   -1.5093    4.4036 N.2       1 <0>         0.0000
     20 N2         -3.5819   -1.4434    2.3723 N.am      1 <0>         0.0000
     21 N3         -4.5016   -0.2113    3.8979 N.am      1 <0>         0.0000
     22 N4         -1.0308   -0.4315    0.2584 N.am      1 <0>         0.0000
     23 O1         -3.6680    0.8785    1.9734 O.2       1 <0>         0.0000
     24 O2         -0.6321   -1.4650    2.2360 O.2       1 <0>         0.0000
     25 F1         -0.1001   -2.5500    7.2466 F         1 <0>         0.0000
     26 F2         -0.0279    1.3048   -2.0197 F         1 <0>         0.0000
     27 F3         -0.7419    2.6349   -0.4248 F         1 <0>         0.0000
     28 H1         -3.3608    0.5149    7.8357 H         1 <0>         0.0000
     29 H2         -1.4136    0.2909    4.0045 H         1 <0>         0.0000
     30 H3         -1.8955   -1.3275    8.6728 H         1 <0>         0.0000
     31 H4          0.0022   -1.5628    4.8198 H         1 <0>         0.0000
     32 H5         -3.4298   -4.0024    4.5018 H         1 <0>         0.0000
     33 H6         -4.5526   -4.2244    3.1604 H         1 <0>         0.0000
     34 H7         -1.5452   -3.6598    2.9370 H         1 <0>         0.0000
     35 H8         -2.4078   -5.1085    2.4064 H         1 <0>         0.0000
     36 H9         -1.9294   -3.6589    0.4463 H         1 <0>         0.0000
     37 H10        -3.6667   -3.7514    0.7257 H         1 <0>         0.0000
     38 H11         1.0691   -0.0191   -0.0969 H         1 <0>         0.0000
     39 H12         0.3173    0.9406    1.2254 H         1 <0>         0.0000
     40 H13        -2.6639    0.9353   -0.0985 H         1 <0>         0.0000
     41 H14        -2.1667   -0.0239   -1.5568 H         1 <0>         0.0000
     42 H15        -3.3084   -1.4635    0.3200 H         1 <0>         0.0000
     43 H16        -2.9856    2.1003    4.4653 H         1 <0>         0.0000
     44 H17        -3.7245    2.3088    6.0537 H         1 <0>         0.0000
     45 H18        -5.3438    0.5118    5.6144 H         1 <0>         0.0000
     46 H19        -5.3591    1.6484    4.2492 H         1 <0>         0.0000
@<TRIPOS>BOND
     1    1    3 ar
     2    1    5 ar
     3    1   28 1
     4    2    4 ar
     5    2    5 ar
     6    2   29 1
     7    3    6 ar
     8    3   30 1
     9    4    6 ar
    10    4   31 1
    11    5   17 1
    12    6   25 1
    13    7   10 1
    14    7   19 2
    15    7   20 1
    16    8   20 am
    17    8   21 am
    18    8   23 2
    19    9   15 1
    20    9   22 am
    21    9   24 2
    22   10   11 1
    23   10   32 1
    24   10   33 1
    25   11   12 1
    26   11   34 1
    27   11   35 1
    28   12   15 1
    29   12   36 1
    30   12   37 1
    31   13   16 1
    32   13   22 1
    33   13   38 1
    34   13   39 1
    35   14   16 1
    36   14   22 1
    37   14   40 1
    38   14   41 1
    39   15   20 1
    40   15   42 1
    41   16   26 1
    42   16   27 1
    43   17   18 1
    44   17   43 1
    45   17   44 1
    46   18   21 1
    47   18   45 1
    48   18   46 1
    49   19   21 1
