@<TRIPOS>MOLECULE
*****
   40    42     0     0     0
SMALL
NO_CHARGES

@<TRIPOS>ATOM
      1 C1          1.3858   -0.6444    4.7089 C.ar      1 <0>         0.0000
      2 C2          0.5062    1.6020    2.0603 C.2       1 <0>         0.0000
      3 C3          2.0093   -1.6716    4.0168 C.ar      1 <0>         0.0000
      4 C4          0.0372    2.2420    3.1844 C.2       1 <0>         0.0000
      5 C5          1.0947    0.3908    2.5071 C.ar      1 <0>         0.0000
      6 C6          0.9395    0.3802    3.8885 C.ar      1 <0>         0.0000
      7 C7          1.7377   -0.6944    1.9097 C.ar      1 <0>         0.0000
      8 C8          3.0973   -1.4436    0.0030 C.3       1 <0>         0.0000
      9 C9          0.7537   -0.7086   -0.3650 C.3       1 <0>         0.0000
     10 C10         3.4272   -0.9673   -1.4135 C.3       1 <0>         0.0000
     11 C11         1.1590   -0.2571   -1.7703 C.3       1 <0>         0.0000
     12 C12         3.0333    0.7963   -3.6525 C.3       1 <0>         0.0000
     13 C13         3.7445   -1.5526   -4.1676 C.3       1 <0>         0.0000
     14 C14         1.3708   -0.8441   -4.5579 C.3       1 <0>         0.0000
     15 C15         2.5985   -0.6737   -3.6556 C.3       1 <0>         0.0000
     16 N1          2.1914   -1.7203    2.6735 N.ar      1 <0>         0.0000
     17 N2          1.9200   -0.7367    0.5229 N.pl3     1 <0>         0.0000
     18 N3          2.2568   -1.0796   -2.2928 N.3       1 <0>         0.0000
     19 O1          0.2953    1.5087    4.2989 O.3       1 <0>         0.0000
     20 H1          1.2592   -0.6436    5.7823 H         1 <0>         0.0000
     21 H2          0.4315    1.9661    1.0455 H         1 <0>         0.0000
     22 H3          2.3994   -2.5311    4.5548 H         1 <0>         0.0000
     23 H4         -0.4768    3.1775    3.3504 H         1 <0>         0.0000
     24 H5          2.9085   -2.5254   -0.0014 H         1 <0>         0.0000
     25 H6          3.9645   -1.2601    0.6495 H         1 <0>         0.0000
     26 H7         -0.0026   -0.0159    0.0249 H         1 <0>         0.0000
     27 H8          0.2976   -1.7065   -0.4115 H         1 <0>         0.0000
     28 H9          3.7988    0.0658   -1.3791 H         1 <0>         0.0000
     29 H10         4.2426   -1.5909   -1.8000 H         1 <0>         0.0000
     30 H11         0.2821   -0.3508   -2.4228 H         1 <0>         0.0000
     31 H12         1.4355    0.8059   -1.7515 H         1 <0>         0.0000
     32 H13         2.2289    1.4467   -3.2895 H         1 <0>         0.0000
     33 H14         3.9074    0.9523   -3.0107 H         1 <0>         0.0000
     34 H15         3.2917    1.1340   -4.6630 H         1 <0>         0.0000
     35 H16         3.4568   -2.6103   -4.1790 H         1 <0>         0.0000
     36 H17         4.6279   -1.4644   -3.5246 H         1 <0>         0.0000
     37 H18         4.0385   -1.2721   -5.1851 H         1 <0>         0.0000
     38 H19         1.0377   -1.8883   -4.5787 H         1 <0>         0.0000
     39 H20         0.5328   -0.2292   -4.2116 H         1 <0>         0.0000
     40 H21         1.5957   -0.5553   -5.5913 H         1 <0>         0.0000
@<TRIPOS>BOND
     1    1    3 ar
     2    1    6 ar
     3    1   20 1
     4    2    4 2
     5    2    5 1
     6    2   21 1
     7    3   16 ar
     8    3   22 1
     9    4   19 1
    10    4   23 1
    11    5    6 ar
    12    5    7 ar
    13    6   19 1
    14    7   16 ar
    15    7   17 1
    16    8   10 1
    17    8   17 1
    18    8   24 1
    19    8   25 1
    20    9   11 1
    21    9   17 1
    22    9   26 1
    23    9   27 1
    24   10   18 1
    25   10   28 1
    26   10   29 1
    27   11   18 1
    28   11   30 1
    29   11   31 1
    30   12   15 1
    31   12   32 1
    32   12   33 1
    33   12   34 1
    34   13   15 1
    35   13   35 1
    36   13   36 1
    37   13   37 1
    38   14   15 1
    39   14   38 1
    40   14   39 1
    41   14   40 1
    42   15   18 1
