@<TRIPOS>MOLECULE
*****
   32    35     0     0     0
SMALL
NO_CHARGES

@<TRIPOS>ATOM
      1 C1          0.6962   -1.0111   -1.7462 C.ar      1 <0>         0.0000
      2 C2          0.5490    4.3797   -1.2968 C.2       1 <0>         0.0000
      3 C3         -0.2774   -2.1974    0.0801 C.ar      1 <0>         0.0000
      4 C4          0.0568   -0.9719   -0.5077 C.ar      1 <0>         0.0000
      5 C5          0.9647   -2.2465   -2.3244 C.ar      1 <0>         0.0000
      6 C6         -0.8965   -2.6581    1.2555 C.2       1 <0>         0.0000
      7 C7          0.0467   -3.3600   -0.6024 C.ar      1 <0>         0.0000
      8 C8          0.8964    2.3002   -0.0956 C.2       1 <0>         0.0000
      9 C9         -0.2438    0.2946    0.1334 C.2       1 <0>         0.0000
     10 C10         2.9594   -1.5422   -3.8088 C.3       1 <0>         0.0000
     11 C11         2.9255   -3.0385   -3.8082 C.3       1 <0>         0.0000
     12 C12         1.6468   -2.2610   -3.6546 C.3       1 <0>         0.0000
     13 C13        -1.4529   -1.8663    2.3659 C.3       1 <0>         0.0000
     14 N1          1.6593    4.4554   -0.6328 N.2       1 <0>         0.0000
     15 N2          0.6615   -3.4559   -1.7956 N.ar      1 <0>         0.0000
     16 N3         -0.9567   -3.9919    1.3072 N.2       1 <0>         0.0000
     17 N4          0.8417    1.1231    0.4261 N.2       1 <0>         0.0000
     18 N5          1.8393    3.2833    0.0341 N.pl3     1 <0>         0.0000
     19 O1         -1.4238    0.6029    0.3993 O.2       1 <0>         0.0000
     20 O2         -0.3604   -4.4329    0.1329 O.3       1 <0>         0.0000
     21 S1         -0.3681    2.8809   -1.1668 S.3       1 <0>         0.0000
     22 H1          0.9777   -0.0900   -2.2496 H         1 <0>         0.0000
     23 H2          0.1783    5.2069   -1.9206 H         1 <0>         0.0000
     24 H3          3.3974   -1.0487   -2.9492 H         1 <0>         0.0000
     25 H4          3.1450   -1.0415   -4.7515 H         1 <0>         0.0000
     26 H5          3.0870   -3.5470   -4.7515 H         1 <0>         0.0000
     27 H6          3.3423   -3.5509   -2.9496 H         1 <0>         0.0000
     28 H7          0.9831   -2.2456   -4.5075 H         1 <0>         0.0000
     29 H8         -2.5171   -1.6299    2.1951 H         1 <0>         0.0000
     30 H9         -1.3809   -2.3958    3.3326 H         1 <0>         0.0000
     31 H10        -0.9179   -0.9099    2.5049 H         1 <0>         0.0000
     32 H11         2.6663    3.1672    0.6098 H         1 <0>         0.0000
@<TRIPOS>BOND
     1    1    4 ar
     2    1    5 ar
     3    1   22 1
     4    2   14 2
     5    2   21 1
     6    2   23 1
     7    3    4 ar
     8    3    6 1
     9    3    7 ar
    10    4    9 1
    11    5   12 1
    12    5   15 ar
    13    6   13 1
    14    6   16 2
    15    7   15 ar
    16    7   20 1
    17    8   17 2
    18    8   18 1
    19    8   21 1
    20    9   17 1
    21    9   19 2
    22   10   11 1
    23   10   12 1
    24   10   24 1
    25   10   25 1
    26   11   12 1
    27   11   26 1
    28   11   27 1
    29   12   28 1
    30   13   29 1
    31   13   30 1
    32   13   31 1
    33   14   18 1
    34   16   20 1
    35   18   32 1
