@<TRIPOS>MOLECULE
*****
   28    29     0     0     0
SMALL
NO_CHARGES

@<TRIPOS>ATOM
      1 C1          1.1691    0.4711   -3.3411 C.2       1 <0>         0.0000
      2 C2          0.9575   -0.3127   -4.5369 C.2       1 <0>         0.0000
      3 C3          0.5368   -0.1784   -2.3226 C.2       1 <0>         0.0000
      4 C4          0.2095   -1.3928   -4.1534 C.2       1 <0>         0.0000
      5 C5          0.4760    1.7889    0.8538 C.3       1 <0>         0.0000
      6 C6          1.5415    0.9850    1.5922 C.3       1 <0>         0.0000
      7 C7          1.4933   -0.6807   -0.0651 C.3       1 <0>         0.0000
      8 C8          0.4137    0.0804   -0.8569 C.3       1 <0>         0.0000
      9 C9          1.4676    0.0162   -5.9101 C.3       1 <0>         0.0000
     10 C10        -0.3554   -2.5710   -4.8697 C.3       1 <0>         0.0000
     11 N1          0.5837    1.5141   -0.5844 N.3       1 <0>         0.0000
     12 O1         -0.0567   -1.3220   -2.7997 O.3       1 <0>         0.0000
     13 O2          1.4013   -0.4119    1.3314 O.3       1 <0>         0.0000
     14 H1          1.7252    1.3947   -3.2493 H         1 <0>         0.0000
     15 H2         -0.5144    1.5212    1.2624 H         1 <0>         0.0000
     16 H3          0.6395    2.8586    1.0251 H         1 <0>         0.0000
     17 H4          2.5413    1.3242    1.2807 H         1 <0>         0.0000
     18 H5          1.4438    1.1081    2.6739 H         1 <0>         0.0000
     19 H6          1.3642   -1.7583   -0.1865 H         1 <0>         0.0000
     20 H7          2.4825   -0.3878   -0.4472 H         1 <0>         0.0000
     21 H8         -0.5667   -0.2968   -0.5138 H         1 <0>         0.0000
     22 H9          2.5616    0.0820   -5.9212 H         1 <0>         0.0000
     23 H10         1.1740   -0.7405   -6.6426 H         1 <0>         0.0000
     24 H11         1.0808    0.9815   -6.2565 H         1 <0>         0.0000
     25 H12         0.0281   -3.5110   -4.4564 H         1 <0>         0.0000
     26 H13        -1.4487   -2.5976   -4.7953 H         1 <0>         0.0000
     27 H14        -0.0882   -2.5318   -5.9280 H         1 <0>         0.0000
     28 H15        -0.1244    2.0363   -1.0962 H         1 <0>         0.0000
@<TRIPOS>BOND
     1    1    2 1
     2    1    3 2
     3    1   14 1
     4    2    4 2
     5    2    9 1
     6    3    8 1
     7    3   12 1
     8    4   10 1
     9    4   12 1
    10    5    6 1
    11    5   11 1
    12    5   15 1
    13    5   16 1
    14    6   13 1
    15    6   17 1
    16    6   18 1
    17    7    8 1
    18    7   13 1
    19    7   19 1
    20    7   20 1
    21    8   11 1
    22    8   21 1
    23    9   22 1
    24    9   23 1
    25    9   24 1
    26   10   25 1
    27   10   26 1
    28   10   27 1
    29   11   28 1
