@<TRIPOS>MOLECULE
*****
   39    41     0     0     0
SMALL
NO_CHARGES

@<TRIPOS>ATOM
      1 C1          2.1908    1.4019    1.3799 C.ar      1 <0>         0.0000
      2 C2          0.8640    1.1668    1.7728 C.ar      1 <0>         0.0000
      3 C3          2.6921    0.9604    0.1419 C.ar      1 <0>         0.0000
      4 C4          0.7343   -0.8679   -2.3251 C.2       1 <0>         0.0000
      5 C5          0.4977    0.0418   -0.2983 C.ar      1 <0>         0.0000
      6 C6         -0.0162    0.4818    0.9287 C.ar      1 <0>         0.0000
      7 C7         -0.1784   -0.6623   -1.3174 C.2       1 <0>         0.0000
      8 C8          1.8036    0.2717   -0.6848 C.ar      1 <0>         0.0000
      9 C9         -1.5184   -1.0811    2.1340 C.2       1 <0>         0.0000
     10 C10        -2.0197   -1.1816    3.3800 C.2       1 <0>         0.0000
     11 C11        -1.6168   -1.0171   -1.1354 C.3       1 <0>         0.0000
     12 C12        -1.4571    0.1328    1.2516 C.3       1 <0>         0.0000
     13 C13        -2.2757   -0.0510   -0.0900 C.3       1 <0>         0.0000
     14 C14        -2.6155    0.0284    4.0537 C.3       1 <0>         0.0000
     15 C15        -4.5400   -0.0354   -0.8857 C.3       1 <0>         0.0000
     16 C16        -2.0692   -2.4471    4.1929 C.3       1 <0>         0.0000
     17 N1          1.9306   -0.2988   -1.9331 N.pl3     1 <0>         0.0000
     18 N2         -3.6503   -0.4791    0.1752 N.3       1 <0>         0.0000
     19 O1         -3.4231   -2.7621    4.4915 O.3       1 <0>         0.0000
     20 H1          2.8540    1.9396    2.0544 H         1 <0>         0.0000
     21 H2          0.5247    1.5210    2.7426 H         1 <0>         0.0000
     22 H3          3.7193    1.1471   -0.1495 H         1 <0>         0.0000
     23 H4          0.6534   -1.3588   -3.2846 H         1 <0>         0.0000
     24 H5         -1.1052   -1.9780    1.6744 H         1 <0>         0.0000
     25 H6         -2.1452   -0.9447   -2.0935 H         1 <0>         0.0000
     26 H7         -1.6884   -2.0572   -0.7943 H         1 <0>         0.0000
     27 H8         -1.9037    0.9736    1.7967 H         1 <0>         0.0000
     28 H9         -2.3305    0.9407   -0.5643 H         1 <0>         0.0000
     29 H10        -3.6859    0.0955    3.8334 H         1 <0>         0.0000
     30 H11        -2.4869   -0.0350    5.1389 H         1 <0>         0.0000
     31 H12        -2.1510    0.9625    3.7210 H         1 <0>         0.0000
     32 H13        -4.2124   -0.4658   -1.8436 H         1 <0>         0.0000
     33 H14        -5.5657   -0.3670   -0.6666 H         1 <0>         0.0000
     34 H15        -4.5154    1.0624   -0.9496 H         1 <0>         0.0000
     35 H16        -1.6366   -3.2746    3.6199 H         1 <0>         0.0000
     36 H17        -1.5194   -2.3811    5.1338 H         1 <0>         0.0000
     37 H18         2.7764   -0.2997   -2.4860 H         1 <0>         0.0000
     38 H19        -3.9525   -0.0816    1.0615 H         1 <0>         0.0000
     39 H20        -3.4112   -3.5802    5.0138 H         1 <0>         0.0000
@<TRIPOS>BOND
     1    1    2 ar
     2    1    3 ar
     3    1   20 1
     4    2    6 ar
     5    2   21 1
     6    3    8 ar
     7    3   22 1
     8    4    7 2
     9    4   17 1
    10    4   23 1
    11    5    6 ar
    12    5    7 1
    13    5    8 ar
    14    6   12 1
    15    7   11 1
    16    8   17 1
    17    9   10 2
    18    9   12 1
    19    9   24 1
    20   10   14 1
    21   10   16 1
    22   11   13 1
    23   11   25 1
    24   11   26 1
    25   12   13 1
    26   12   27 1
    27   13   18 1
    28   13   28 1
    29   14   29 1
    30   14   30 1
    31   14   31 1
    32   15   18 1
    33   15   32 1
    34   15   33 1
    35   15   34 1
    36   16   19 1
    37   16   35 1
    38   16   36 1
    39   17   37 1
    40   18   38 1
    41   19   39 1
