@<TRIPOS>MOLECULE
*****
   24    23     0     0     0
SMALL
NO_CHARGES

@<TRIPOS>ATOM
      1 C1         -1.7955    4.0176   -1.9808 C.3       1 <0>         0.0000
      2 C2         -4.1851    4.2123   -1.8242 C.3       1 <0>         0.0000
      3 C3         -2.0307   -0.7061   -2.2128 C.3       1 <0>         0.0000
      4 C4         -1.3497    0.8740    1.3891 C.3       1 <0>         0.0000
      5 C5         -3.0407    2.4706   -0.6285 C.3       1 <0>         0.0000
      6 C6         -2.2187    1.1926   -0.8030 C.3       1 <0>         0.0000
      7 N1         -3.0538    3.2730   -1.8242 N.3       1 <0>         0.0000
      8 O1         -2.7641    0.4757   -1.9196 O.3       1 <0>         0.0000
      9 O2         -2.2533    0.4113    0.3949 O.3       1 <0>         0.0000
     10 H1         -0.9480    3.3272   -1.9820 H         1 <0>         0.0000
     11 H2         -1.6708    4.7264   -1.1576 H         1 <0>         0.0000
     12 H3         -1.7991    4.5720   -2.9231 H         1 <0>         0.0000
     13 H4         -5.1256    3.6676   -1.7082 H         1 <0>         0.0000
     14 H5         -4.2143    4.7687   -2.7649 H         1 <0>         0.0000
     15 H6         -4.0861    4.9232   -0.9994 H         1 <0>         0.0000
     16 H7         -2.4838   -1.2144   -3.0674 H         1 <0>         0.0000
     17 H8         -2.0341   -1.3641   -1.3401 H         1 <0>         0.0000
     18 H9         -1.0012   -0.4340   -2.4575 H         1 <0>         0.0000
     19 H10        -1.4242    0.2381    2.2746 H         1 <0>         0.0000
     20 H11        -1.5904    1.9080    1.6486 H         1 <0>         0.0000
     21 H12        -0.3321    0.8270    0.9941 H         1 <0>         0.0000
     22 H13        -4.0837    2.2475   -0.3878 H         1 <0>         0.0000
     23 H14        -2.6195    3.0952    0.1657 H         1 <0>         0.0000
     24 H15        -1.1850    1.4693   -1.0496 H         1 <0>         0.0000
@<TRIPOS>BOND
     1    1    7 1
     2    1   10 1
     3    1   11 1
     4    1   12 1
     5    2    7 1
     6    2   13 1
     7    2   14 1
     8    2   15 1
     9    3    8 1
    10    3   16 1
    11    3   17 1
    12    3   18 1
    13    4    9 1
    14    4   19 1
    15    4   20 1
    16    4   21 1
    17    5    6 1
    18    5    7 1
    19    5   22 1
    20    5   23 1
    21    6    8 1
    22    6    9 1
    23    6   24 1
