@<TRIPOS>MOLECULE
*****
   21    22     0     0     0
SMALL
NO_CHARGES

@<TRIPOS>ATOM
      1 C1          1.8851   -1.0363   -0.1124 C.ar      1 <0>         0.0000
      2 C2          2.9210   -1.6309    0.6081 C.ar      1 <0>         0.0000
      3 C3          0.8066   -0.4630    0.5610 C.ar      1 <0>         0.0000
      4 C4         -0.1819   -0.1406    6.9972 C.2       1 <0>         0.0000
      5 C5          1.7584   -1.1113    6.9558 C.2       1 <0>         0.0000
      6 C6          1.7997   -1.0786    2.6757 C.ar      1 <0>         0.0000
      7 C7          2.8783   -1.6520    2.0022 C.ar      1 <0>         0.0000
      8 C8          0.7638   -0.4841    1.9551 C.ar      1 <0>         0.0000
      9 C9          1.7551   -1.1010    4.1296 C.2       1 <0>         0.0000
     10 N1          0.1916   -0.3295    8.2427 N.2       1 <0>         0.0000
     11 N2          1.4261   -0.9471    8.2163 N.2       1 <0>         0.0000
     12 N3          0.7531   -0.6028    4.7787 N.2       1 <0>         0.0000
     13 N4          0.7747   -0.6178    6.1535 N.pl3     1 <0>         0.0000
     14 F1          3.8791   -2.2260    2.6850 F         1 <0>         0.0000
     15 F2         -0.2775    0.0698    2.5924 F         1 <0>         0.0000
     16 H1          1.9181   -1.0201   -1.1979 H         1 <0>         0.0000
     17 H2          3.7610   -2.0771    0.0841 H         1 <0>         0.0000
     18 H3          0.0001    0.0001    0.0001 H         1 <0>         0.0000
     19 H4         -1.1007    0.3195    6.6626 H         1 <0>         0.0000
     20 H5          2.6661   -1.5638    6.5820 H         1 <0>         0.0000
     21 H6          2.6108   -1.5889    4.6276 H         1 <0>         0.0000
@<TRIPOS>BOND
     1    1    3 ar
     2    1    2 ar
     3    1   16 1
     4    2    7 ar
     5    2   17 1
     6    3    8 ar
     7    3   18 1
     8    4   10 2
     9    4   13 1
    10    4   19 1
    11    5   11 2
    12    5   13 1
    13    5   20 1
    14    6    8 ar
    15    6    7 ar
    16    6    9 1
    17    7   14 1
    18    8   15 1
    19    9   12 2
    20    9   21 1
    21   10   11 1
    22   12   13 1
