@<TRIPOS>MOLECULE
*****
   26    26     0     0     0
SMALL
NO_CHARGES

@<TRIPOS>ATOM
      1 C1          1.7100   -0.9430   -0.3139 C.ar      1 <0>         0.0000
      2 C2          0.5015   -0.5877    0.2882 C.ar      1 <0>         0.0000
      3 C3          2.7113   -1.5638    0.4351 C.ar      1 <0>         0.0000
      4 C4          0.2968   -0.8626    1.6418 C.ar      1 <0>         0.0000
      5 C5          2.5357   -1.8465    1.7957 C.ar      1 <0>         0.0000
      6 C6          1.3057   -1.4874    2.3773 C.ar      1 <0>         0.0000
      7 C7          5.2695   -1.4205    4.7474 C.3       1 <0>         0.0000
      8 C8          3.6833   -2.4380    2.5568 C.3       1 <0>         0.0000
      9 N1          0.9137   -3.5188    4.1053 N.pl3     1 <0>         0.0000
     10 O1          2.0825   -1.4799    4.9672 O.2       1 <0>         0.0000
     11 O2         -0.3885   -1.2693    4.3944 O.2       1 <0>         0.0000
     12 O3          6.1191   -1.3643    2.2239 O.2       1 <0>         0.0000
     13 O4          4.2283    0.2059    2.9139 O.2       1 <0>         0.0000
     14 S1          0.9408   -1.8132    4.1075 S.o2      1 <0>         0.0000
     15 S2          4.8996   -1.0977    3.0111 S.o2      1 <0>         0.0000
     16 H1          1.8789   -0.7301   -1.3658 H         1 <0>         0.0000
     17 H2         -0.2784   -0.0971   -0.2868 H         1 <0>         0.0000
     18 H3          3.6587   -1.8179   -0.0331 H         1 <0>         0.0000
     19 H4         -0.6317   -0.5938    2.1340 H         1 <0>         0.0000
     20 H5          6.0134   -0.6743    5.0333 H         1 <0>         0.0000
     21 H6          4.3511   -1.3046    5.3213 H         1 <0>         0.0000
     22 H7          5.6891   -2.4244    4.8360 H         1 <0>         0.0000
     23 H8          4.2658   -3.1213    1.9375 H         1 <0>         0.0000
     24 H9          3.3874   -2.9396    3.4756 H         1 <0>         0.0000
     25 H10         1.0679   -3.8304    5.0665 H         1 <0>         0.0000
     26 H11         0.0033   -3.8505    3.7820 H         1 <0>         0.0000
@<TRIPOS>BOND
     1    1    2 ar
     2    1    3 ar
     3    1   16 1
     4    2    4 ar
     5    2   17 1
     6    3    5 ar
     7    3   18 1
     8    4    6 ar
     9    4   19 1
    10    5    6 ar
    11    5    8 1
    12    6   14 1
    13    7   15 1
    14    7   20 1
    15    7   21 1
    16    7   22 1
    17    8   15 1
    18    8   23 1
    19    8   24 1
    20    9   14 1
    21    9   25 1
    22    9   26 1
    23   10   14 2
    24   11   14 2
    25   12   15 2
    26   13   15 2
