@<TRIPOS>MOLECULE
*****
   43    44     0     0     0
SMALL
NO_CHARGES

@<TRIPOS>ATOM
      1 C1          3.6901    3.4141   -8.0174 C.2       1 <0>         0.0000
      2 C2          2.5608    4.1935   -6.1981 C.2       1 <0>         0.0000
      3 C3          1.9540    1.8708   -5.3883 C.2       1 <0>         0.0000
      4 C4          0.4354   -3.2599   -4.8769 C.3       1 <0>         0.0000
      5 C5          1.8523   -2.9644   -4.3641 C.3       1 <0>         0.0000
      6 C6         -0.4565   -2.0130   -4.7955 C.3       1 <0>         0.0000
      7 C7          2.4835   -1.7722   -5.0977 C.3       1 <0>         0.0000
      8 C8          0.1737   -0.8257   -5.5366 C.3       1 <0>         0.0000
      9 C9          1.5880   -0.5310   -5.0110 C.3       1 <0>         0.0000
     10 C10         4.5051    3.4269   -9.2620 C.3       1 <0>         0.0000
     11 C11         1.8685    6.0398   -9.4937 C.3       1 <0>         0.0000
     12 C12         2.7919    8.0817   -8.3109 C.3       1 <0>         0.0000
     13 C13         2.3798    6.6167   -8.1752 C.3       1 <0>         0.0000
     14 N1          3.2642    2.3427   -7.4117 N.2       1 <0>         0.0000
     15 N2          3.2896    4.5502   -7.3523 N.am      1 <0>         0.0000
     16 N3          2.5598    2.8005   -6.2911 N.am      1 <0>         0.0000
     17 N4          2.2134    0.5803   -5.7244 N.am      1 <0>         0.0000
     18 N5          3.5870    5.8645   -7.7274 N.3       1 <0>         0.0000
     19 O1          2.1083    4.9664   -5.3737 O.2       1 <0>         0.0000
     20 O2          1.2972    2.2480   -4.4319 O.2       1 <0>         0.0000
     21 H1         -0.0079   -4.0832   -4.3047 H         1 <0>         0.0000
     22 H2          0.4918   -3.5967   -5.9214 H         1 <0>         0.0000
     23 H3          1.8086   -2.7414   -3.2895 H         1 <0>         0.0000
     24 H4          2.4912   -3.8481   -4.4741 H         1 <0>         0.0000
     25 H5         -1.4498   -2.2259   -5.2067 H         1 <0>         0.0000
     26 H6         -0.6062   -1.7414   -3.7417 H         1 <0>         0.0000
     27 H7          3.4715   -1.5415   -4.6839 H         1 <0>         0.0000
     28 H8          2.6313   -2.0354   -6.1557 H         1 <0>         0.0000
     29 H9          0.2368   -1.0505   -6.6106 H         1 <0>         0.0000
     30 H10        -0.4423    0.0725   -5.4276 H         1 <0>         0.0000
     31 H11         1.5086   -0.2204   -3.9646 H         1 <0>         0.0000
     32 H12         3.9539    3.8927  -10.0836 H         1 <0>         0.0000
     33 H13         4.7580    2.4007   -9.5326 H         1 <0>         0.0000
     34 H14         5.4201    4.0066   -9.1122 H         1 <0>         0.0000
     35 H15         2.6324    6.1227  -10.2744 H         1 <0>         0.0000
     36 H16         1.5874    4.9872   -9.3888 H         1 <0>         0.0000
     37 H17         0.9781    6.5855   -9.8209 H         1 <0>         0.0000
     38 H18         3.5967    8.1923   -9.0453 H         1 <0>         0.0000
     39 H19         3.1370    8.4895   -7.3539 H         1 <0>         0.0000
     40 H20         1.9393    8.6838   -8.6377 H         1 <0>         0.0000
     41 H21         1.5926    6.5348   -7.4153 H         1 <0>         0.0000
     42 H22         2.7054    0.4122   -6.5943 H         1 <0>         0.0000
     43 H23         3.9593    6.3200   -6.8928 H         1 <0>         0.0000
@<TRIPOS>BOND
     1    1   10 1
     2    1   14 2
     3    1   15 1
     4    2   15 am
     5    2   16 am
     6    2   19 2
     7    3   16 am
     8    3   17 am
     9    3   20 2
    10    4    6 1
    11    4    5 1
    12    4   21 1
    13    4   22 1
    14    5    7 1
    15    5   23 1
    16    5   24 1
    17    6    8 1
    18    6   25 1
    19    6   26 1
    20    7    9 1
    21    7   27 1
    22    7   28 1
    23    8    9 1
    24    8   29 1
    25    8   30 1
    26    9   17 1
    27    9   31 1
    28   10   32 1
    29   10   33 1
    30   10   34 1
    31   11   13 1
    32   11   35 1
    33   11   36 1
    34   11   37 1
    35   12   13 1
    36   12   38 1
    37   12   39 1
    38   12   40 1
    39   13   18 1
    40   13   41 1
    41   14   16 1
    42   15   18 1
    43   17   42 1
    44   18   43 1
