@<TRIPOS>MOLECULE
*****
   32    34     0     0     0
SMALL
NO_CHARGES

@<TRIPOS>ATOM
      1 C1         -1.6996    1.4748   -0.3997 C.ar      1 <0>         0.0000
      2 C2         -1.1996    0.2070   -0.0820 C.ar      1 <0>         0.0000
      3 C3         -3.0552    1.6230   -0.6919 C.ar      1 <0>         0.0000
      4 C4         -2.0641   -0.8865   -0.0623 C.ar      1 <0>         0.0000
      5 C5         -4.2667   -1.1308    3.7470 C.ar      1 <0>         0.0000
      6 C6         -3.2959   -3.2704    4.1421 C.ar      1 <0>         0.0000
      7 C7         -3.9341    0.5294   -0.6691 C.ar      1 <0>         0.0000
      8 C8         -3.4294   -0.7418   -0.3463 C.ar      1 <0>         0.0000
      9 C9         -3.7260   -2.0422    4.6539 C.ar      1 <0>         0.0000
     10 C10        -3.9178   -2.6102    2.0457 C.ar      1 <0>         0.0000
     11 C11        -5.4056    0.7471   -0.9605 C.3       1 <0>         0.0000
     12 C12        -6.1177   -0.5405   -1.3835 C.3       1 <0>         0.0000
     13 C13        -5.8257   -1.6505   -0.3729 C.3       1 <0>         0.0000
     14 C14        -4.3262   -1.9824   -0.3513 C.3       1 <0>         0.0000
     15 N1         -4.3720   -1.4043    2.4466 N.ar      1 <0>         0.0000
     16 N2         -3.3822   -3.5627    2.8472 N.ar      1 <0>         0.0000
     17 N3         -3.9949   -2.9253    0.7209 N.pl3     1 <0>         0.0000
     18 Cl1        -3.5925   -1.6684    6.3585 Cl        1 <0>         0.0000
     19 H1         -1.0382    2.3373   -0.4215 H         1 <0>         0.0000
     20 H2         -0.1457    0.0729    0.1480 H         1 <0>         0.0000
     21 H3         -3.4471    2.6074   -0.9418 H         1 <0>         0.0000
     22 H4         -1.6764   -1.8691    0.1951 H         1 <0>         0.0000
     23 H5         -4.6247   -0.1577    4.0797 H         1 <0>         0.0000
     24 H6         -2.8693   -4.0289    4.7968 H         1 <0>         0.0000
     25 H7         -5.8880    1.1367   -0.0534 H         1 <0>         0.0000
     26 H8         -5.5182    1.5215   -1.7274 H         1 <0>         0.0000
     27 H9         -7.1971   -0.3680   -1.4553 H         1 <0>         0.0000
     28 H10        -5.7762   -0.8431   -2.3826 H         1 <0>         0.0000
     29 H11        -6.1297   -1.3264    0.6261 H         1 <0>         0.0000
     30 H12        -6.3829   -2.5632   -0.6099 H         1 <0>         0.0000
     31 H13        -4.1020   -2.5307   -1.2748 H         1 <0>         0.0000
     32 H14        -3.5738   -3.8123    0.4826 H         1 <0>         0.0000
@<TRIPOS>BOND
     1    1    2 ar
     2    1    3 ar
     3    1   19 1
     4    2    4 ar
     5    2   20 1
     6    3    7 ar
     7    3   21 1
     8    4    8 ar
     9    4   22 1
    10    5    9 ar
    11    5   15 ar
    12    5   23 1
    13    6    9 ar
    14    6   16 ar
    15    6   24 1
    16    7    8 ar
    17    7   11 1
    18    8   14 1
    19    9   18 1
    20   10   16 ar
    21   10   15 ar
    22   10   17 1
    23   11   12 1
    24   11   25 1
    25   11   26 1
    26   12   13 1
    27   12   27 1
    28   12   28 1
    29   13   14 1
    30   13   29 1
    31   13   30 1
    32   14   17 1
    33   14   31 1
    34   17   32 1
