@<TRIPOS>MOLECULE
*****
   50    52     0     0     0
SMALL
NO_CHARGES

@<TRIPOS>ATOM
      1 C1         -0.7732    4.7488    0.0657 C.ar      1 <0>         0.0000
      2 C2         -2.3323    4.9685   -1.7518 C.ar      1 <0>         0.0000
      3 C3         -1.8228    4.5248    0.9597 C.ar      1 <0>         0.0000
      4 C4         -3.3955    4.7498   -0.8732 C.ar      1 <0>         0.0000
      5 C5         -1.0028    4.9683   -1.3005 C.ar      1 <0>         0.0000
      6 C6         -3.1322    4.5239    0.4785 C.ar      1 <0>         0.0000
      7 C7         -3.8013    2.1463   -7.7738 C.3       1 <0>         0.0000
      8 C8         -2.3594    1.2907   -5.9070 C.3       1 <0>         0.0000
      9 C9         -2.7513    3.6634   -6.0702 C.3       1 <0>         0.0000
     10 C10        -0.1277    6.0528   -3.4475 C.3       1 <0>         0.0000
     11 C11         0.1758    5.1747   -2.2320 C.3       1 <0>         0.0000
     12 C12        -2.8162    1.0500   -7.3498 C.3       1 <0>         0.0000
     13 C13        -3.2298    3.5464   -7.5207 C.3       1 <0>         0.0000
     14 C14         0.6708    3.8831   -2.9512 C.3       1 <0>         0.0000
     15 C15        -0.1404    3.8608   -4.2855 C.3       1 <0>         0.0000
     16 C16        -3.4152   -0.3506   -7.5101 C.3       1 <0>         0.0000
     17 C17        -4.2447    4.6456   -7.8499 C.3       1 <0>         0.0000
     18 C18         0.6522    2.6113   -2.1032 C.3       1 <0>         0.0000
     19 C19        -1.2188    2.7808   -4.3897 C.3       1 <0>         0.0000
     20 N1         -1.7710    2.6225   -5.7353 N.3       1 <0>         0.0000
     21 O1         -0.7223    5.1802   -4.4107 O.3       1 <0>         0.0000
     22 Cl1        -4.4660    4.2411    1.5893 Cl        1 <0>         0.0000
     23 H1          0.2461    4.7533    0.4456 H         1 <0>         0.0000
     24 H2         -2.5432    5.1377   -2.8026 H         1 <0>         0.0000
     25 H3         -1.6282    4.3572    2.0145 H         1 <0>         0.0000
     26 H4         -4.4193    4.7536   -1.2347 H         1 <0>         0.0000
     27 H5         -4.0667    2.0276   -8.8322 H         1 <0>         0.0000
     28 H6         -4.7343    2.0309   -7.2013 H         1 <0>         0.0000
     29 H7         -3.2239    1.1417   -5.2263 H         1 <0>         0.0000
     30 H8         -1.6061    0.5421   -5.6356 H         1 <0>         0.0000
     31 H9         -2.2936    4.6388   -5.9065 H         1 <0>         0.0000
     32 H10        -3.6310    3.5984   -5.3942 H         1 <0>         0.0000
     33 H11        -0.8359    6.8611   -3.2483 H         1 <0>         0.0000
     34 H12         0.8007    6.4890   -3.8463 H         1 <0>         0.0000
     35 H13         1.0009    5.5973   -1.6499 H         1 <0>         0.0000
     36 H14        -1.9246    1.1281   -7.9863 H         1 <0>         0.0000
     37 H15        -2.3485    3.6779   -8.1627 H         1 <0>         0.0000
     38 H16         1.7144    4.0783   -3.2250 H         1 <0>         0.0000
     39 H17         0.5440    3.7125   -5.1307 H         1 <0>         0.0000
     40 H18        -4.3020   -0.4748   -6.8769 H         1 <0>         0.0000
     41 H19        -2.6952   -1.1297   -7.2337 H         1 <0>         0.0000
     42 H20        -3.7204   -0.5302   -8.5469 H         1 <0>         0.0000
     43 H21        -5.1368    4.5601   -7.2174 H         1 <0>         0.0000
     44 H22        -4.5711    4.5805   -8.8939 H         1 <0>         0.0000
     45 H23        -3.8180    5.6428   -7.6930 H         1 <0>         0.0000
     46 H24        -0.3555    2.3459   -1.7755 H         1 <0>         0.0000
     47 H25         1.2648    2.7465   -1.2055 H         1 <0>         0.0000
     48 H26         1.0682    1.7634   -2.6575 H         1 <0>         0.0000
     49 H27        -2.0057    2.9561   -3.6350 H         1 <0>         0.0000
     50 H28        -0.7396    1.8326   -4.1290 H         1 <0>         0.0000
@<TRIPOS>BOND
     1    1    3 ar
     2    1    5 ar
     3    1   23 1
     4    2    4 ar
     5    2    5 ar
     6    2   24 1
     7    3    6 ar
     8    3   25 1
     9    4    6 ar
    10    4   26 1
    11    5   11 1
    12    6   22 1
    13    7   12 1
    14    7   13 1
    15    7   27 1
    16    7   28 1
    17    8   12 1
    18    8   20 1
    19    8   29 1
    20    8   30 1
    21    9   13 1
    22    9   20 1
    23    9   31 1
    24    9   32 1
    25   10   11 1
    26   10   21 1
    27   10   33 1
    28   10   34 1
    29   11   14 1
    30   11   35 1
    31   12   16 1
    32   12   36 1
    33   13   17 1
    34   13   37 1
    35   14   15 1
    36   14   18 1
    37   14   38 1
    38   15   19 1
    39   15   21 1
    40   15   39 1
    41   16   40 1
    42   16   41 1
    43   16   42 1
    44   17   43 1
    45   17   44 1
    46   17   45 1
    47   18   46 1
    48   18   47 1
    49   18   48 1
    50   19   20 1
    51   19   49 1
    52   19   50 1
