@<TRIPOS>MOLECULE
*****
   24    24     0     0     0
SMALL
NO_CHARGES

@<TRIPOS>ATOM
      1 C1          1.2808   -0.8928   -0.7034 C.ar      1 <0>         0.0000
      2 C2          0.2545   -0.2536   -0.0182 C.ar      1 <0>         0.0000
      3 C3          1.1693   -1.0842    2.0786 C.ar      1 <0>         0.0000
      4 C4          2.2691   -1.6474   -0.0426 C.ar      1 <0>         0.0000
      5 C5          0.2132   -0.3549    1.3765 C.ar      1 <0>         0.0000
      6 C6          2.1843   -1.7219    1.3608 C.ar      1 <0>         0.0000
      7 C7          3.3153   -2.3413   -0.9566 C.2       1 <0>         0.0000
      8 N1         -0.3994    2.0843    2.3783 N.pl3     1 <0>         0.0000
      9 N2          3.1860   -4.1397    1.9427 N.pl3     1 <0>         0.0000
     10 O1          3.6926   -1.6508   -1.9238 O.co2     1 <0>         0.0000
     11 O2          3.6061   -3.5395   -0.6607 O.co2     1 <0>         0.0000
     12 O3         -2.2540    0.6728    1.4366 O.2       1 <0>         0.0000
     13 O4         -1.1622   -0.0724    3.6208 O.2       1 <0>         0.0000
     14 O5          4.7575   -2.0272    2.0253 O.2       1 <0>         0.0000
     15 O6          3.0163   -2.4132    3.8022 O.2       1 <0>         0.0000
     16 S1         -1.0587    0.5073    2.2747 S.o2      1 <0>         0.0000
     17 S2          3.4294   -2.5424    2.3924 S.o2      1 <0>         0.0000
     18 H1          1.3631   -0.8109   -1.7823 H         1 <0>         0.0000
     19 H2         -0.5054    0.3169   -0.5437 H         1 <0>         0.0000
     20 H3          1.1332   -1.1703    3.1597 H         1 <0>         0.0000
     21 H4         -1.1819    2.7322    2.4803 H         1 <0>         0.0000
     22 H5          0.2068    2.1413    3.1974 H         1 <0>         0.0000
     23 H6          3.3728   -4.1610    0.9075 H         1 <0>         0.0000
     24 H7          3.8606   -4.7111    2.4555 H         1 <0>         0.0000
@<TRIPOS>BOND
     1    1    2 ar
     2    1    4 ar
     3    1   18 1
     4    2    5 ar
     5    2   19 1
     6    3    5 ar
     7    3    6 ar
     8    3   20 1
     9    4    6 ar
    10    4    7 1
    11    5   16 1
    12    6   17 1
    13    7   10 1
    14    7   11 2
    15    8   16 1
    16    8   21 1
    17    8   22 1
    18    9   17 1
    19    9   23 1
    20    9   24 1
    21   12   16 2
    22   13   16 2
    23   14   17 2
    24   15   17 2
