@<TRIPOS>MOLECULE
*****
   50    52     0     0     0
SMALL
NO_CHARGES

@<TRIPOS>ATOM
      1 C1         -0.7984    4.9470   -0.0322 C.ar      1 <0>         0.0000
      2 C2         -2.1026    5.0587   -2.0516 C.ar      1 <0>         0.0000
      3 C3         -1.9625    4.8298    0.7318 C.ar      1 <0>         0.0000
      4 C4         -3.2764    4.9455   -1.3044 C.ar      1 <0>         0.0000
      5 C5         -0.8427    5.0566   -1.4292 C.ar      1 <0>         0.0000
      6 C6         -3.1978    4.8271    0.0842 C.ar      1 <0>         0.0000
      7 C7         -3.7434    2.1284   -7.2079 C.3       1 <0>         0.0000
      8 C8         -1.4208    2.6158   -6.3803 C.3       1 <0>         0.0000
      9 C9         -3.1297    2.0085   -4.7822 C.3       1 <0>         0.0000
     10 C10         0.3221    5.8836   -3.5495 C.3       1 <0>         0.0000
     11 C11         0.4528    5.1479   -2.2145 C.3       1 <0>         0.0000
     12 C12        -2.4639    2.9368   -7.4566 C.3       1 <0>         0.0000
     13 C13        -4.2573    2.3099   -5.7743 C.3       1 <0>         0.0000
     14 C14         1.0050    3.7851   -2.7300 C.3       1 <0>         0.0000
     15 C15         0.2509    3.5930   -4.0745 C.3       1 <0>         0.0000
     16 C16        -1.8976    2.6930   -8.8586 C.3       1 <0>         0.0000
     17 C17        -5.4874    1.4424   -5.4915 C.3       1 <0>         0.0000
     18 C18         0.9729    2.6205   -1.7405 C.3       1 <0>         0.0000
     19 C19        -0.9567    2.6430   -3.9876 C.3       1 <0>         0.0000
     20 N1         -1.9499    2.8347   -5.0350 N.3       1 <0>         0.0000
     21 O1         -0.1602    4.9126   -4.4836 O.3       1 <0>         0.0000
     22 Cl1        -4.6738    4.6752    1.0290 Cl        1 <0>         0.0000
     23 H1          0.1635    4.9514    0.4760 H         1 <0>         0.0000
     24 H2         -2.1734    5.1240   -3.1335 H         1 <0>         0.0000
     25 H3         -1.9117    4.7448    1.8129 H         1 <0>         0.0000
     26 H4         -4.2438    4.9448   -1.7974 H         1 <0>         0.0000
     27 H5         -4.5197    2.4167   -7.9282 H         1 <0>         0.0000
     28 H6         -3.5350    1.0616   -7.3815 H         1 <0>         0.0000
     29 H7         -1.0758    1.5671   -6.5080 H         1 <0>         0.0000
     30 H8         -0.5533    3.2648   -6.5242 H         1 <0>         0.0000
     31 H9         -3.4740    2.2076   -3.7605 H         1 <0>         0.0000
     32 H10        -2.8841    0.9262   -4.8335 H         1 <0>         0.0000
     33 H11        -0.3893    6.7136   -3.5314 H         1 <0>         0.0000
     34 H12         1.3013    6.2694   -3.8706 H         1 <0>         0.0000
     35 H13         1.2078    5.6257   -1.5817 H         1 <0>         0.0000
     36 H14        -2.7074    4.0024   -7.3548 H         1 <0>         0.0000
     37 H15        -4.5305    3.3652   -5.6410 H         1 <0>         0.0000
     38 H16         2.0558    3.9718   -2.9829 H         1 <0>         0.0000
     39 H17         0.9484    3.2141   -4.8318 H         1 <0>         0.0000
     40 H18        -1.6282    1.6388   -8.9975 H         1 <0>         0.0000
     41 H19        -0.9989    3.2946   -9.0371 H         1 <0>         0.0000
     42 H20        -2.6318    2.9519   -9.6295 H         1 <0>         0.0000
     43 H21        -5.2523    0.3769   -5.6018 H         1 <0>         0.0000
     44 H22        -6.3008    1.6763   -6.1873 H         1 <0>         0.0000
     45 H23        -5.8628    1.5981   -4.4734 H         1 <0>         0.0000
     46 H24        -0.0358    2.4002   -1.3849 H         1 <0>         0.0000
     47 H25         1.5854    2.8537   -0.8630 H         1 <0>         0.0000
     48 H26         1.3808    1.7111   -2.1943 H         1 <0>         0.0000
     49 H27        -1.4695    2.7849   -3.0346 H         1 <0>         0.0000
     50 H28        -0.5572    1.6079   -3.9791 H         1 <0>         0.0000
@<TRIPOS>BOND
     1    1    3 ar
     2    1    5 ar
     3    1   23 1
     4    2    4 ar
     5    2    5 ar
     6    2   24 1
     7    3    6 ar
     8    3   25 1
     9    4    6 ar
    10    4   26 1
    11    5   11 1
    12    6   22 1
    13    7   12 1
    14    7   13 1
    15    7   27 1
    16    7   28 1
    17    8   12 1
    18    8   20 1
    19    8   29 1
    20    8   30 1
    21    9   13 1
    22    9   20 1
    23    9   31 1
    24    9   32 1
    25   10   11 1
    26   10   21 1
    27   10   33 1
    28   10   34 1
    29   11   14 1
    30   11   35 1
    31   12   16 1
    32   12   36 1
    33   13   17 1
    34   13   37 1
    35   14   15 1
    36   14   18 1
    37   14   38 1
    38   15   19 1
    39   15   21 1
    40   15   39 1
    41   16   40 1
    42   16   41 1
    43   16   42 1
    44   17   43 1
    45   17   44 1
    46   17   45 1
    47   18   46 1
    48   18   47 1
    49   18   48 1
    50   19   20 1
    51   19   49 1
    52   19   50 1
