@<TRIPOS>MOLECULE
*****
   53    56     0     0     0
SMALL
NO_CHARGES

@<TRIPOS>ATOM
      1 C1         -0.6870    2.0046   -5.0381 C.1       1 <0>         0.0000
      2 C2          1.0404    2.6189    1.3086 C.ar      1 <0>         0.0000
      3 C3          1.1591    1.9526    0.0648 C.ar      1 <0>         0.0000
      4 C4          0.4691    2.0200    2.4351 C.ar      1 <0>         0.0000
      5 C5          0.1591    0.0358    1.0544 C.ar      1 <0>         0.0000
      6 C6          0.7117    0.6406   -0.0756 C.ar      1 <0>         0.0000
      7 C7         -0.3638   -1.2805    1.1828 C.2       1 <0>         0.0000
      8 C8          0.0226    0.7005    2.2925 C.ar      1 <0>         0.0000
      9 C9         -0.8111   -1.4162    2.4791 C.2       1 <0>         0.0000
     10 C10        -0.2093   -2.2168    0.0244 C.3       1 <0>         0.0000
     11 C11         0.3712    0.7095   -2.5870 C.3       1 <0>         0.0000
     12 C12         0.2077   -1.4796   -3.7878 C.3       1 <0>         0.0000
     13 C13         0.7263   -0.1767   -1.3634 C.3       1 <0>         0.0000
     14 C14        -0.3426   -0.0634   -3.7093 C.3       1 <0>         0.0000
     15 C15        -0.2615   -1.3669   -1.2636 C.3       1 <0>         0.0000
     16 C16         1.6916   -5.6170   -3.3132 C.3       1 <0>         0.0000
     17 C17         0.4952   -4.0043    3.2725 C.3       1 <0>         0.0000
     18 C18        -0.1886    0.6246   -5.0833 C.3       1 <0>         0.0000
     19 C19        -1.4267   -2.6134    3.1503 C.3       1 <0>         0.0000
     20 C20         0.8588   -4.3605   -3.6032 C.3       1 <0>         0.0000
     21 C21         0.8418   -3.4448   -2.3798 C.3       1 <0>         0.0000
     22 N1         -1.0890    3.0914   -4.9552 N.1       1 <0>         0.0000
     23 N2         -0.5741   -0.2147    3.1499 N.pl3     1 <0>         0.0000
     24 N3         -0.1098   -2.2695   -2.5261 N.4       1 <0>         0.0000
     25 O1         -0.8142   -3.8269    2.7339 O.3       1 <0>         0.0000
     26 H1          1.4000    3.6406    1.3861 H         1 <0>         0.0000
     27 H2          1.5951    2.4906   -0.7725 H         1 <0>         0.0000
     28 H3          0.3824    2.5665    3.3700 H         1 <0>         0.0000
     29 H4          0.7583   -2.7232    0.1080 H         1 <0>         0.0000
     30 H5         -0.9834   -2.9913    0.0090 H         1 <0>         0.0000
     31 H6         -0.2652    1.5363   -2.2664 H         1 <0>         0.0000
     32 H7          1.2890    1.1580   -2.9806 H         1 <0>         0.0000
     33 H8         -0.2021   -2.0426   -4.6276 H         1 <0>         0.0000
     34 H9          1.2956   -1.4638   -3.8847 H         1 <0>         0.0000
     35 H10         1.7343   -0.5938   -1.5002 H         1 <0>         0.0000
     36 H11        -1.4172   -0.1142   -3.4970 H         1 <0>         0.0000
     37 H12        -1.2759   -0.9674   -1.3461 H         1 <0>         0.0000
     38 H13         2.7260   -5.3592   -3.0646 H         1 <0>         0.0000
     39 H14         1.2737   -6.1906   -2.4801 H         1 <0>         0.0000
     40 H15         1.7124   -6.2674   -4.1906 H         1 <0>         0.0000
     41 H16         0.8588   -4.9660    2.9061 H         1 <0>         0.0000
     42 H17         0.4683   -4.0268    4.3705 H         1 <0>         0.0000
     43 H18         1.1774   -3.2059    2.9491 H         1 <0>         0.0000
     44 H19        -0.7412    0.0824   -5.8582 H         1 <0>         0.0000
     45 H20         0.8645    0.6475   -5.3864 H         1 <0>         0.0000
     46 H21        -1.3776   -2.5039    4.2449 H         1 <0>         0.0000
     47 H22        -2.4828   -2.7093    2.8779 H         1 <0>         0.0000
     48 H23        -0.1687   -4.6534   -3.8571 H         1 <0>         0.0000
     49 H24         1.2731   -3.8462   -4.4746 H         1 <0>         0.0000
     50 H25         0.5130   -4.0099   -1.5100 H         1 <0>         0.0000
     51 H26         1.8285   -3.0263   -2.1687 H         1 <0>         0.0000
     52 H27        -0.8179   -0.0409    4.1160 H         1 <0>         0.0000
     53 H28        -1.0369   -2.6816   -2.6654 H         1 <0>         0.0000
@<TRIPOS>BOND
     1    1   18 1
     2    1   22 3
     3    2    3 ar
     4    2    4 ar
     5    2   26 1
     6    3    6 ar
     7    3   27 1
     8    4    8 ar
     9    4   28 1
    10    5    6 ar
    11    5    7 1
    12    5    8 ar
    13    6   13 1
    14    7    9 2
    15    7   10 1
    16    8   23 1
    17    9   19 1
    18    9   23 1
    19   10   15 1
    20   10   29 1
    21   10   30 1
    22   11   13 1
    23   11   14 1
    24   11   31 1
    25   11   32 1
    26   12   14 1
    27   12   24 1
    28   12   33 1
    29   12   34 1
    30   13   15 1
    31   13   35 1
    32   14   18 1
    33   14   36 1
    34   15   24 1
    35   15   37 1
    36   16   20 1
    37   16   38 1
    38   16   39 1
    39   16   40 1
    40   17   25 1
    41   17   41 1
    42   17   42 1
    43   17   43 1
    44   18   44 1
    45   18   45 1
    46   19   25 1
    47   19   46 1
    48   19   47 1
    49   20   21 1
    50   20   48 1
    51   20   49 1
    52   21   24 1
    53   21   50 1
    54   21   51 1
    55   23   52 1
    56   24   53 1
