@<TRIPOS>MOLECULE
*****
   43    45     0     0     0
SMALL
NO_CHARGES

@<TRIPOS>ATOM
      1 C1          2.1179   -6.7457    3.8341 C.ar      1 <0>         0.0000
      2 C2          0.4817   -5.2930    4.8607 C.ar      1 <0>         0.0000
      3 C3          2.4614   -5.7214    2.9494 C.ar      1 <0>         0.0000
      4 C4          0.8288   -4.2757    3.9786 C.ar      1 <0>         0.0000
      5 C5          3.6645   -0.6760    3.8941 C.2       1 <0>         0.0000
      6 C6          3.7865   -1.8750    3.2281 C.2       1 <0>         0.0000
      7 C7          1.7206   -1.1118    3.0901 C.2       1 <0>         0.0000
      8 C8          1.1197   -6.5447    4.7986 C.ar      1 <0>         0.0000
      9 C9          1.8194   -4.4799    3.0050 C.ar      1 <0>         0.0000
     10 C10         0.7097   -7.6100    5.7698 C.2       1 <0>         0.0000
     11 C11         2.1405   -3.9132   -1.7481 C.3       1 <0>         0.0000
     12 C12         1.7418   -4.9833   -0.7219 C.3       1 <0>         0.0000
     13 C13         2.5594   -2.6052   -1.0623 C.3       1 <0>         0.0000
     14 C14         0.6636   -4.4629    0.2402 C.3       1 <0>         0.0000
     15 C15         1.4755   -2.0992   -0.0980 C.3       1 <0>         0.0000
     16 C16         1.0674   -3.1548    0.9515 C.3       1 <0>         0.0000
     17 C17         1.4177   -8.9528    5.7228 C.3       1 <0>         0.0000
     18 C18         2.1783   -3.3901    2.0075 C.3       1 <0>         0.0000
     19 N1          2.3703   -0.2065    3.7997 N.2       1 <0>         0.0000
     20 N2          2.5352   -2.1467    2.7031 N.pl3     1 <0>         0.0000
     21 O1         -0.1805   -7.4022    6.5865 O.2       1 <0>         0.0000
     22 H1          2.6351   -7.6977    3.7655 H         1 <0>         0.0000
     23 H2         -0.2831   -5.1418    5.6162 H         1 <0>         0.0000
     24 H3          3.2364   -5.8931    2.2059 H         1 <0>         0.0000
     25 H4          0.3370   -3.3099    4.0555 H         1 <0>         0.0000
     26 H5          4.4297   -0.1259    4.4264 H         1 <0>         0.0000
     27 H6          4.6185   -2.5504    3.0858 H         1 <0>         0.0000
     28 H7          0.6774   -1.0531    2.8125 H         1 <0>         0.0000
     29 H8          1.2833   -3.7132   -2.4058 H         1 <0>         0.0000
     30 H9          2.9484   -4.2830   -2.3902 H         1 <0>         0.0000
     31 H10         1.3725   -5.8799   -1.2327 H         1 <0>         0.0000
     32 H11         2.6301   -5.2993   -0.1595 H         1 <0>         0.0000
     33 H12         3.5018   -2.7585   -0.5200 H         1 <0>         0.0000
     34 H13         2.7666   -1.8338   -1.8124 H         1 <0>         0.0000
     35 H14        -0.2470   -4.2551   -0.3361 H         1 <0>         0.0000
     36 H15         0.3974   -5.2319    0.9712 H         1 <0>         0.0000
     37 H16         1.8052   -1.1763    0.3871 H         1 <0>         0.0000
     38 H17         0.5791   -1.8439   -0.6781 H         1 <0>         0.0000
     39 H18         0.1826   -2.7934    1.4890 H         1 <0>         0.0000
     40 H19         2.4932   -8.8342    5.8929 H         1 <0>         0.0000
     41 H20         1.2905   -9.4282    4.7442 H         1 <0>         0.0000
     42 H21         0.9990   -9.5994    6.4947 H         1 <0>         0.0000
     43 H22         3.0853   -3.7048    1.4869 H         1 <0>         0.0000
@<TRIPOS>BOND
     1    1    3 ar
     2    1    8 ar
     3    1   22 1
     4    2    4 ar
     5    2    8 ar
     6    2   23 1
     7    3    9 ar
     8    3   24 1
     9    4    9 ar
    10    4   25 1
    11    5    6 2
    12    5   19 1
    13    5   26 1
    14    6   20 1
    15    6   27 1
    16    7   19 2
    17    7   20 1
    18    7   28 1
    19    8   10 1
    20    9   18 1
    21   10   17 1
    22   10   21 2
    23   11   13 1
    24   11   12 1
    25   11   29 1
    26   11   30 1
    27   12   14 1
    28   12   31 1
    29   12   32 1
    30   13   15 1
    31   13   33 1
    32   13   34 1
    33   14   16 1
    34   14   35 1
    35   14   36 1
    36   15   16 1
    37   15   37 1
    38   15   38 1
    39   16   18 1
    40   16   39 1
    41   17   40 1
    42   17   41 1
    43   17   42 1
    44   18   20 1
    45   18   43 1
