@<TRIPOS>MOLECULE
*****
   29    30     0     0     0
SMALL
NO_CHARGES

@<TRIPOS>ATOM
      1 C1          0.6393    4.8680   -1.3266 C.ar      1 <0>         0.0000
      2 C2          0.0104    3.6722   -0.9918 C.ar      1 <0>         0.0000
      3 C3          2.0042    5.0677   -1.0966 C.ar      1 <0>         0.0000
      4 C4          2.1279    2.8161   -0.1687 C.ar      1 <0>         0.0000
      5 C5          0.7605    2.6307   -0.4065 C.ar      1 <0>         0.0000
      6 C6          2.7412    4.0285   -0.5123 C.ar      1 <0>         0.0000
      7 C7          0.5772    0.4546    0.7974 C.2       1 <0>         0.0000
      8 C8         -1.4449   -0.3568   -0.2193 C.3       1 <0>         0.0000
      9 C9         -1.2601    1.1369   -0.5216 C.3       1 <0>         0.0000
     10 C10        -0.5178   -0.6045    0.9720 C.3       1 <0>         0.0000
     11 C11         4.7655    5.3036   -0.5510 C.3       1 <0>         0.0000
     12 N1          0.1178    1.4111   -0.0873 N.am      1 <0>         0.0000
     13 N2         -1.1945   -0.3022    2.2453 N.3       1 <0>         0.0000
     14 O1          1.6463    0.4434    1.3964 O.2       1 <0>         0.0000
     15 O2          4.0815    4.0963   -0.2364 O.3       1 <0>         0.0000
     16 H1          0.0542    5.6672   -1.7742 H         1 <0>         0.0000
     17 H2         -1.0519    3.5617   -1.1725 H         1 <0>         0.0000
     18 H3          2.4644    6.0104   -1.3680 H         1 <0>         0.0000
     19 H4          2.7237    2.0401    0.2907 H         1 <0>         0.0000
     20 H5         -2.4871   -0.6054   -0.0044 H         1 <0>         0.0000
     21 H6         -1.1152   -0.9528   -1.0760 H         1 <0>         0.0000
     22 H7         -1.3741    1.3639   -1.5845 H         1 <0>         0.0000
     23 H8         -1.9654    1.7519    0.0485 H         1 <0>         0.0000
     24 H9         -0.0512   -1.5986    0.9448 H         1 <0>         0.0000
     25 H10         5.8022    5.1460   -0.2500 H         1 <0>         0.0000
     26 H11         4.3524    6.1552    0.0041 H         1 <0>         0.0000
     27 H12         4.7292    5.5176   -1.6267 H         1 <0>         0.0000
     28 H13        -0.4981   -0.2783    2.9900 H         1 <0>         0.0000
     29 H14        -1.8428   -1.0550    2.4717 H         1 <0>         0.0000
@<TRIPOS>BOND
     1    1    2 ar
     2    1    3 ar
     3    1   16 1
     4    2    5 ar
     5    2   17 1
     6    3    6 ar
     7    3   18 1
     8    4    5 ar
     9    4    6 ar
    10    4   19 1
    11    5   12 1
    12    6   15 1
    13    7   10 1
    14    7   12 am
    15    7   14 2
    16    8    9 1
    17    8   10 1
    18    8   20 1
    19    8   21 1
    20    9   12 1
    21    9   22 1
    22    9   23 1
    23   10   13 1
    24   10   24 1
    25   11   15 1
    26   11   25 1
    27   11   26 1
    28   11   27 1
    29   13   28 1
    30   13   29 1
