@<TRIPOS>MOLECULE
*****
   30    31     0     0     0
SMALL
NO_CHARGES

@<TRIPOS>ATOM
      1 C1          1.2814   -1.6436    4.2022 C.ar      1 <0>         0.0000
      2 C2          1.1588   -1.4065    2.8272 C.ar      1 <0>         0.0000
      3 C3          0.4219   -1.0448    5.1123 C.ar      1 <0>         0.0000
      4 C4         -0.7340    0.0695    3.2802 C.ar      1 <0>         0.0000
      5 C5          0.1507   -0.5476    2.3789 C.ar      1 <0>         0.0000
      6 C6         -0.5930   -0.1868    4.6501 C.ar      1 <0>         0.0000
      7 C7         -1.0154    0.2641    0.3369 C.2       1 <0>         0.0000
      8 C8          0.7581    0.0381   -1.2787 C.3       1 <0>         0.0000
      9 C9          1.0861   -0.7219    0.0261 C.3       1 <0>         0.0000
     10 C10        -0.7532    0.1603   -1.1736 C.3       1 <0>         0.0000
     11 C11        -2.4571    1.2142    5.2029 C.3       1 <0>         0.0000
     12 N1          0.0312   -0.3009    0.9730 N.am      1 <0>         0.0000
     13 N2         -1.4213    1.3776   -1.7642 N.4       1 <0>         0.0000
     14 O1         -2.0343    0.8249    0.7509 O.2       1 <0>         0.0000
     15 O2         -1.3903    0.3523    5.6061 O.3       1 <0>         0.0000
     16 H1          2.0599   -2.3115    4.5586 H         1 <0>         0.0000
     17 H2          1.8328   -1.9051    2.1408 H         1 <0>         0.0000
     18 H3          0.5085   -1.2240    6.1792 H         1 <0>         0.0000
     19 H4         -1.5099    0.7227    2.9119 H         1 <0>         0.0000
     20 H5          1.2275    1.0278   -1.2504 H         1 <0>         0.0000
     21 H6          1.1070   -0.4894   -2.1676 H         1 <0>         0.0000
     22 H7          1.0573   -1.8062   -0.1198 H         1 <0>         0.0000
     23 H8          2.0662   -0.4483    0.4178 H         1 <0>         0.0000
     24 H9         -1.2835   -0.7081   -1.5746 H         1 <0>         0.0000
     25 H10        -2.9632    1.5058    6.1227 H         1 <0>         0.0000
     26 H11        -3.1618    0.6902    4.5471 H         1 <0>         0.0000
     27 H12        -2.0728    2.1086    4.6985 H         1 <0>         0.0000
     28 H13        -0.8036    2.1984   -1.7584 H         1 <0>         0.0000
     29 H14        -2.2170    1.5785   -1.1141 H         1 <0>         0.0000
     30 H15        -1.7681    1.2418   -2.7196 H         1 <0>         0.0000
@<TRIPOS>BOND
     1    1    2 ar
     2    1    3 ar
     3    1   16 1
     4    2    5 ar
     5    2   17 1
     6    3    6 ar
     7    3   18 1
     8    4    5 ar
     9    4    6 ar
    10    4   19 1
    11    5   12 1
    12    6   15 1
    13    7   10 1
    14    7   12 am
    15    7   14 2
    16    8    9 1
    17    8   10 1
    18    8   20 1
    19    8   21 1
    20    9   12 1
    21    9   22 1
    22    9   23 1
    23   10   13 1
    24   10   24 1
    25   11   15 1
    26   11   25 1
    27   11   26 1
    28   11   27 1
    29   13   28 1
    30   13   29 1
    31   13   30 1
