@<TRIPOS>MOLECULE
*****
   44    47     0     0     0
SMALL
NO_CHARGES

@<TRIPOS>ATOM
      1 C1          2.3908   -2.0194   -2.8606 C.1       1 <0>         0.0000
      2 C2         -0.2938    2.1415    2.4615 C.ar      1 <0>         0.0000
      3 C3          0.5351    1.0587    2.0762 C.ar      1 <0>         0.0000
      4 C4         -1.3106    2.6398    1.6411 C.ar      1 <0>         0.0000
      5 C5         -0.6631    0.9314    0.0238 C.ar      1 <0>         0.0000
      6 C6          0.3547    0.4374    0.8438 C.ar      1 <0>         0.0000
      7 C7         -1.0378    0.4861   -1.2782 C.2       1 <0>         0.0000
      8 C8         -1.4863    2.0162    0.3977 C.ar      1 <0>         0.0000
      9 C9         -2.0742    1.2981   -1.6893 C.2       1 <0>         0.0000
     10 C10         0.6823   -2.0561    0.8785 C.2       1 <0>         0.0000
     11 C11         0.7043   -3.2069    0.1956 C.2       1 <0>         0.0000
     12 C12         0.8310   -6.7233    1.1476 C.2       1 <0>         0.0000
     13 C13        -0.3170   -0.6908   -1.8678 C.3       1 <0>         0.0000
     14 C14         1.2302   -3.3032   -1.2122 C.3       1 <0>         0.0000
     15 C15         1.1515   -0.7361    0.3030 C.3       1 <0>         0.0000
     16 C16         1.1026   -0.7849   -1.2473 C.3       1 <0>         0.0000
     17 C17         1.9954   -7.6814    1.0858 C.3       1 <0>         0.0000
     18 C18        -2.8639    1.3012   -2.9653 C.3       1 <0>         0.0000
     19 C19         0.1505   -4.4759    0.7696 C.3       1 <0>         0.0000
     20 N1          2.9419   -2.0139   -3.8934 N.1       1 <0>         0.0000
     21 N2         -2.3470    2.2236   -0.6687 N.pl3     1 <0>         0.0000
     22 N3          1.7974   -2.0220   -1.6628 N.3       1 <0>         0.0000
     23 O1         -0.2995   -7.0010    1.4967 O.2       1 <0>         0.0000
     24 O2         -2.0461    1.1616   -4.1285 O.3       1 <0>         0.0000
     25 O3          1.2050   -5.4776    0.7546 O.3       1 <0>         0.0000
     26 H1         -0.1280    2.6077    3.4291 H         1 <0>         0.0000
     27 H2          1.3191    0.7244    2.7524 H         1 <0>         0.0000
     28 H3         -1.9247    3.4766    1.9637 H         1 <0>         0.0000
     29 H4          0.3018   -2.0404    1.8981 H         1 <0>         0.0000
     30 H5         -0.8694   -1.6120   -1.6459 H         1 <0>         0.0000
     31 H6         -0.2312   -0.6242   -2.9556 H         1 <0>         0.0000
     32 H7          2.0218   -4.0569   -1.2563 H         1 <0>         0.0000
     33 H8          0.4272   -3.6442   -1.8846 H         1 <0>         0.0000
     34 H9          2.2046   -0.6036    0.5838 H         1 <0>         0.0000
     35 H10         1.6976    0.0488   -1.6285 H         1 <0>         0.0000
     36 H11         2.3595   -7.7583    0.0569 H         1 <0>         0.0000
     37 H12         1.6780   -8.6615    1.4403 H         1 <0>         0.0000
     38 H13         2.8212   -7.3088    1.6984 H         1 <0>         0.0000
     39 H14        -3.5526    0.4514   -3.0014 H         1 <0>         0.0000
     40 H15        -3.4752    2.2161   -3.0195 H         1 <0>         0.0000
     41 H16        -0.6887   -4.8570    0.1773 H         1 <0>         0.0000
     42 H17        -0.1974   -4.3334    1.7950 H         1 <0>         0.0000
     43 H18        -3.0423    2.9540   -0.7312 H         1 <0>         0.0000
     44 H19        -1.3301    1.8147   -4.0684 H         1 <0>         0.0000
@<TRIPOS>BOND
     1    1   20 3
     2    1   22 1
     3    2    3 ar
     4    2    4 ar
     5    2   26 1
     6    3    6 ar
     7    3   27 1
     8    4    8 ar
     9    4   28 1
    10    5    6 ar
    11    5    7 1
    12    5    8 ar
    13    6   15 1
    14    7    9 2
    15    7   13 1
    16    8   21 1
    17    9   18 1
    18    9   21 1
    19   10   11 2
    20   10   15 1
    21   10   29 1
    22   11   14 1
    23   11   19 1
    24   12   17 1
    25   12   23 2
    26   12   25 1
    27   13   16 1
    28   13   30 1
    29   13   31 1
    30   14   22 1
    31   14   32 1
    32   14   33 1
    33   15   16 1
    34   15   34 1
    35   16   22 1
    36   16   35 1
    37   17   36 1
    38   17   37 1
    39   17   38 1
    40   18   24 1
    41   18   39 1
    42   18   40 1
    43   19   25 1
    44   19   41 1
    45   19   42 1
    46   21   43 1
    47   24   44 1
