@<TRIPOS>MOLECULE
*****
   25    25     0     0     0
SMALL
NO_CHARGES

@<TRIPOS>ATOM
      1 C1          1.2638    0.8852    3.0035 C.2       1 <0>         0.0000
      2 C2          0.8397    0.3051    1.8607 C.2       1 <0>         0.0000
      3 C3          3.1500    0.3260    1.4331 C.2       1 <0>         0.0000
      4 C4         -1.6846    0.2991    2.3138 C.2       1 <0>         0.0000
      5 C5         -4.0376    0.1941    2.5244 C.3       1 <0>         0.0000
      6 C6          5.6159    0.4145   -1.4507 C.3       1 <0>         0.0000
      7 C7         -0.5372   -0.0514    1.3838 C.3       1 <0>         0.0000
      8 N1          4.3134    0.1875    0.8510 N.2       1 <0>         0.0000
      9 N2          1.8977   -0.0126    1.0012 N.pl3     1 <0>         0.0000
     10 O1         -1.6057    0.8333    3.4018 O.2       1 <0>         0.0000
     11 O2          4.9909   -1.9459   -0.4120 O.2       1 <0>         0.0000
     12 O3          3.1256   -0.5202   -1.3540 O.2       1 <0>         0.0000
     13 O4         -2.8496   -0.0779    1.7458 O.3       1 <0>         0.0000
     14 S1          3.0151    1.0565    3.0328 S.3       1 <0>         0.0000
     15 S2          4.4098   -0.6138   -0.6053 S.o2      1 <0>         0.0000
     16 H1          0.6516    1.2121    3.8289 H         1 <0>         0.0000
     17 H2         -4.8673   -0.1712    1.9205 H         1 <0>         0.0000
     18 H3         -4.1331    1.2667    2.7059 H         1 <0>         0.0000
     19 H4         -3.9922   -0.3329    3.4798 H         1 <0>         0.0000
     20 H5          5.8039   -0.0572   -2.4166 H         1 <0>         0.0000
     21 H6          5.1979    1.4132   -1.5763 H         1 <0>         0.0000
     22 H7          6.5221    0.4364   -0.8454 H         1 <0>         0.0000
     23 H8         -0.5960   -1.1281    1.1820 H         1 <0>         0.0000
     24 H9         -0.7383    0.4331    0.4201 H         1 <0>         0.0000
     25 H10         1.8007   -0.3528    0.0413 H         1 <0>         0.0000
@<TRIPOS>BOND
     1    1    2 2
     2    1   14 1
     3    1   16 1
     4    2    7 1
     5    2    9 1
     6    3    8 2
     7    3    9 1
     8    3   14 1
     9    4    7 1
    10    4   10 2
    11    4   13 1
    12    5   13 1
    13    5   17 1
    14    5   18 1
    15    5   19 1
    16    6   15 1
    17    6   20 1
    18    6   21 1
    19    6   22 1
    20    7   23 1
    21    7   24 1
    22    8   15 1
    23    9   25 1
    24   11   15 2
    25   12   15 2
