@<TRIPOS>MOLECULE
*****
   29    30     0     0     0
SMALL
NO_CHARGES

@<TRIPOS>ATOM
      1 C1         -0.5533    0.9062   -2.4470 C.2       1 <0>         0.0000
      2 C2          0.3577   -0.5219    1.5526 C.2       1 <0>         0.0000
      3 C3          0.3390    0.6666    0.9073 C.2       1 <0>         0.0000
      4 C4         -0.3646   -0.6203   -1.0241 C.2       1 <0>         0.0000
      5 C5          0.6705    1.9482    1.4876 C.2       1 <0>         0.0000
      6 C6          0.0152    2.4698    2.5238 C.2       1 <0>         0.0000
      7 C7          0.7301   -0.6542    2.9704 C.2       1 <0>         0.0000
      8 C8         -0.2917   -1.2271    3.9146 C.3       1 <0>         0.0000
      9 C9         -0.5406    4.1187    4.2649 C.3       1 <0>         0.0000
     10 C10         1.4669    4.4310    2.8528 C.3       1 <0>         0.0000
     11 N1         -0.6883   -0.4357   -2.2869 N.2       1 <0>         0.0000
     12 N2         -0.1653    1.5839   -1.3698 N.2       1 <0>         0.0000
     13 N3          0.0275   -1.7145    0.9314 N.2       1 <0>         0.0000
     14 N4         -0.3124   -1.7600   -0.2805 N.2       1 <0>         0.0000
     15 N5         -0.0408    0.6017   -0.4409 N.pl3     1 <0>         0.0000
     16 N6          0.2570    3.6606    3.1301 N.pl3     1 <0>         0.0000
     17 O1          1.8414   -0.2967    3.3568 O.2       1 <0>         0.0000
     18 H1         -0.7438    1.4115   -3.3819 H         1 <0>         0.0000
     19 H2          1.4959    2.4743    1.0278 H         1 <0>         0.0000
     20 H3         -0.8142    1.9484    2.9909 H         1 <0>         0.0000
     21 H4         -0.2045   -2.3148    3.9831 H         1 <0>         0.0000
     22 H5         -1.2936   -0.9781    3.5553 H         1 <0>         0.0000
     23 H6         -0.1351   -0.8068    4.9117 H         1 <0>         0.0000
     24 H7         -0.1856    5.0954    4.6037 H         1 <0>         0.0000
     25 H8         -0.4621    3.4091    5.0930 H         1 <0>         0.0000
     26 H9         -1.5917    4.2066    3.9772 H         1 <0>         0.0000
     27 H10         1.4682    5.3528    3.4403 H         1 <0>         0.0000
     28 H11         1.5152    4.6899    1.7916 H         1 <0>         0.0000
     29 H12         2.3543    3.8473    3.1119 H         1 <0>         0.0000
@<TRIPOS>BOND
     1    1   11 1
     2    1   12 2
     3    1   18 1
     4    2    3 2
     5    2    7 1
     6    2   13 1
     7    3    5 1
     8    3   15 1
     9    4   11 2
    10    4   14 1
    11    4   15 1
    12    5    6 2
    13    5   19 1
    14    6   16 1
    15    6   20 1
    16    7    8 1
    17    7   17 2
    18    8   21 1
    19    8   22 1
    20    8   23 1
    21    9   16 1
    22    9   24 1
    23    9   25 1
    24    9   26 1
    25   10   16 1
    26   10   27 1
    27   10   28 1
    28   10   29 1
    29   12   15 1
    30   13   14 2
