@<TRIPOS>MOLECULE
*****
   37    38     0     0     0
SMALL
NO_CHARGES

@<TRIPOS>ATOM
      1 C1          8.3218   -3.4664    3.3146 C.ar      1 <0>         0.0000
      2 C2          5.8838    3.0738    4.9820 C.ar      1 <0>         0.0000
      3 C3          7.6699   -2.8687    2.2359 C.ar      1 <0>         0.0000
      4 C4          7.8538   -3.2620    4.6126 C.ar      1 <0>         0.0000
      5 C5          5.6006    2.7278    3.6607 C.ar      1 <0>         0.0000
      6 C6          5.8372    2.1029    5.9824 C.ar      1 <0>         0.0000
      7 C7          6.5500   -2.0666    2.4553 C.ar      1 <0>         0.0000
      8 C8          6.7339   -2.4599    4.8320 C.ar      1 <0>         0.0000
      9 C9          5.2708    1.4110    3.3398 C.ar      1 <0>         0.0000
     10 C10         5.5074    0.7861    5.6616 C.ar      1 <0>         0.0000
     11 C11         6.0820   -1.8622    3.7533 C.ar      1 <0>         0.0000
     12 C12         5.2242    0.4402    4.3403 C.ar      1 <0>         0.0000
     13 C13         2.6530   -0.9695    3.1532 C.2       1 <0>         0.0000
     14 C14        -0.4181   -1.0476    0.8052 C.3       1 <0>         0.0000
     15 C15         1.8665   -1.0574    1.8652 C.3       1 <0>         0.0000
     16 C16         0.3609   -0.9911    2.1092 C.3       1 <0>         0.0000
     17 C17         4.8657   -0.9913    3.9908 C.3       1 <0>         0.0000
     18 O1          2.1680   -0.8407    4.2689 O.2       1 <0>         0.0000
     19 O2          3.9853   -1.0584    2.8643 O.3       1 <0>         0.0000
     20 H1          9.1946   -4.0899    3.1441 H         1 <0>         0.0000
     21 H2          6.1394    4.0993    5.2322 H         1 <0>         0.0000
     22 H3          8.0346   -3.0268    1.2253 H         1 <0>         0.0000
     23 H4          8.3619   -3.7264    5.4527 H         1 <0>         0.0000
     24 H5          5.6357    3.4837    2.8817 H         1 <0>         0.0000
     25 H6          6.0566    2.3723    7.0115 H         1 <0>         0.0000
     26 H7          6.0484   -1.6051    1.6088 H         1 <0>         0.0000
     27 H8          6.3763   -2.3063    5.8467 H         1 <0>         0.0000
     28 H9          5.0517    1.1507    2.3077 H         1 <0>         0.0000
     29 H10         5.4737    0.0363    6.4476 H         1 <0>         0.0000
     30 H11        -0.1198   -0.2237    0.1493 H         1 <0>         0.0000
     31 H12        -0.2308   -1.9878    0.2766 H         1 <0>         0.0000
     32 H13        -1.4944   -0.9640    0.9875 H         1 <0>         0.0000
     33 H14         2.1732   -0.2263    1.2201 H         1 <0>         0.0000
     34 H15         2.1199   -2.0036    1.3741 H         1 <0>         0.0000
     35 H16         0.0494   -1.8226    2.7528 H         1 <0>         0.0000
     36 H17         0.1082   -0.0668    2.6424 H         1 <0>         0.0000
     37 H18         4.2844   -1.4203    4.8171 H         1 <0>         0.0000
@<TRIPOS>BOND
     1    1    4 ar
     2    1    3 ar
     3    1   20 1
     4    2    6 ar
     5    2    5 ar
     6    2   21 1
     7    3    7 ar
     8    3   22 1
     9    4    8 ar
    10    4   23 1
    11    5    9 ar
    12    5   24 1
    13    6   10 ar
    14    6   25 1
    15    7   11 ar
    16    7   26 1
    17    8   11 ar
    18    8   27 1
    19    9   12 ar
    20    9   28 1
    21   10   12 ar
    22   10   29 1
    23   11   17 1
    24   12   17 1
    25   13   15 1
    26   13   18 2
    27   13   19 1
    28   14   16 1
    29   14   30 1
    30   14   31 1
    31   14   32 1
    32   15   16 1
    33   15   33 1
    34   15   34 1
    35   16   35 1
    36   16   36 1
    37   17   19 1
    38   17   37 1
