@<TRIPOS>MOLECULE
*****
   27    29     0     0     0
SMALL
NO_CHARGES

@<TRIPOS>ATOM
      1 C1         -1.8388    1.3359   -1.7068 C.ar      1 <0>         0.0000
      2 C2         -1.2490    0.4316   -0.8118 C.ar      1 <0>         0.0000
      3 C3         -2.9258    0.9348   -2.4980 C.ar      1 <0>         0.0000
      4 C4         -1.7144   -0.8844   -0.6854 C.ar      1 <0>         0.0000
      5 C5         -3.3954   -0.3703   -2.3789 C.ar      1 <0>         0.0000
      6 C6         -2.7919   -1.2616   -1.4853 C.ar      1 <0>         0.0000
      7 C7         -7.0067   -0.8832   -3.0820 C.2       1 <0>         0.0000
      8 C8         -8.5120   -1.9863   -4.3720 C.3       1 <0>         0.0000
      9 C9         -4.3008   -2.5365   -2.6059 C.3       1 <0>         0.0000
     10 C10        -9.3834   -0.7890   -3.9248 C.3       1 <0>         0.0000
     11 C11        -4.5684   -1.0709   -3.0196 C.3       1 <0>         0.0000
     12 N1         -7.1148   -1.7312   -4.0381 N.2       1 <0>         0.0000
     13 N2         -5.8294   -0.5583   -2.4662 N.pl3     1 <0>         0.0000
     14 O1         -3.3686   -2.4995   -1.4849 O.3       1 <0>         0.0000
     15 S1         -8.5183   -0.1198   -2.4505 S.3       1 <0>         0.0000
     16 H1         -1.4506    2.3470   -1.7888 H         1 <0>         0.0000
     17 H2         -0.4070    0.7539   -0.2045 H         1 <0>         0.0000
     18 H3         -3.3890    1.6308   -3.1941 H         1 <0>         0.0000
     19 H4         -1.2579   -1.5885    0.0033 H         1 <0>         0.0000
     20 H5         -8.8421   -2.9032   -3.8636 H         1 <0>         0.0000
     21 H6         -8.6168   -2.1522   -5.4490 H         1 <0>         0.0000
     22 H7         -5.2022   -3.0546   -2.2830 H         1 <0>         0.0000
     23 H8         -3.8224   -3.0902   -3.4199 H         1 <0>         0.0000
     24 H9         -9.4275   -0.0114   -4.6918 H         1 <0>         0.0000
     25 H10       -10.3978   -1.0853   -3.6510 H         1 <0>         0.0000
     26 H11        -4.5945   -0.9816   -4.1101 H         1 <0>         0.0000
     27 H12        -5.7851    0.3294   -1.9823 H         1 <0>         0.0000
@<TRIPOS>BOND
     1    1    2 ar
     2    1    3 ar
     3    1   16 1
     4    2    4 ar
     5    2   17 1
     6    3    5 ar
     7    3   18 1
     8    4    6 ar
     9    4   19 1
    10    5    6 ar
    11    5   11 1
    12    6   14 1
    13    7   12 2
    14    7   13 1
    15    7   15 1
    16    8   10 1
    17    8   12 1
    18    8   20 1
    19    8   21 1
    20    9   11 1
    21    9   14 1
    22    9   22 1
    23    9   23 1
    24   10   15 1
    25   10   24 1
    26   10   25 1
    27   11   13 1
    28   11   26 1
    29   13   27 1
