@<TRIPOS>MOLECULE
*****
   38    40     0     0     0
SMALL
NO_CHARGES

@<TRIPOS>ATOM
      1 C1          3.1644    0.4136    1.5959 C.ar      1 <0>         0.0000
      2 C2          2.8278   -0.9096    1.9119 C.ar      1 <0>         0.0000
      3 C3          2.2296    1.2165    0.9435 C.ar      1 <0>         0.0000
      4 C4          1.5729   -1.4085    1.5721 C.ar      1 <0>         0.0000
      5 C5          0.9597    0.7374    0.5844 C.ar      1 <0>         0.0000
      6 C6          0.6408   -0.5925    0.9126 C.ar      1 <0>         0.0000
      7 C7         -0.8361    5.4612   -2.4495 C.3       1 <0>         0.0000
      8 C8          0.3495    5.2947   -1.5119 C.3       1 <0>         0.0000
      9 C9         -1.4390    0.9836   -0.1195 C.3       1 <0>         0.0000
     10 C10        -0.0498    1.6395   -0.0979 C.3       1 <0>         0.0000
     11 C11        -0.7459    4.2400   -1.5784 C.3       1 <0>         0.0000
     12 C12        -1.4196   -0.5336   -0.3484 C.3       1 <0>         0.0000
     13 C13        -2.8101   -1.1198   -0.1100 C.3       1 <0>         0.0000
     14 C14        -0.8987   -0.9499   -1.7314 C.3       1 <0>         0.0000
     15 C15         0.4524    2.1027   -1.4863 C.3       1 <0>         0.0000
     16 N1         -0.5313    2.9425   -2.1758 N.3       1 <0>         0.0000
     17 O1         -0.5790   -1.1637    0.6585 O.3       1 <0>         0.0000
     18 H1          4.1389    0.8134    1.8624 H         1 <0>         0.0000
     19 H2          3.5415   -1.5505    2.4234 H         1 <0>         0.0000
     20 H3          2.4795    2.2511    0.7168 H         1 <0>         0.0000
     21 H4          1.2862   -2.4293    1.8091 H         1 <0>         0.0000
     22 H5         -1.5872    6.2097   -2.2147 H         1 <0>         0.0000
     23 H6         -0.6527    5.3364   -3.5143 H         1 <0>         0.0000
     24 H7          1.3071    5.0492   -1.9633 H         1 <0>         0.0000
     25 H8          0.4118    5.9344   -0.6357 H         1 <0>         0.0000
     26 H9         -1.9207    1.1551    0.8495 H         1 <0>         0.0000
     27 H10        -2.0561    1.4607   -0.8855 H         1 <0>         0.0000
     28 H11        -0.1334    2.5486    0.5107 H         1 <0>         0.0000
     29 H12        -1.4275    4.2150   -0.7306 H         1 <0>         0.0000
     30 H13        -2.7803   -2.2110   -0.1838 H         1 <0>         0.0000
     31 H14        -3.5143   -0.7398   -0.8568 H         1 <0>         0.0000
     32 H15        -3.1764   -0.8515    0.8852 H         1 <0>         0.0000
     33 H16        -1.0604   -2.0215   -1.8820 H         1 <0>         0.0000
     34 H17         0.1727   -0.7619   -1.8260 H         1 <0>         0.0000
     35 H18        -1.4180   -0.4009   -2.5231 H         1 <0>         0.0000
     36 H19         0.6542    1.2386   -2.1223 H         1 <0>         0.0000
     37 H20         1.4119    2.6244   -1.3399 H         1 <0>         0.0000
     38 H21        -0.2733    3.0445   -3.1531 H         1 <0>         0.0000
@<TRIPOS>BOND
     1    1    2 ar
     2    1    3 ar
     3    1   18 1
     4    2    4 ar
     5    2   19 1
     6    3    5 ar
     7    3   20 1
     8    4    6 ar
     9    4   21 1
    10    5    6 ar
    11    5   10 1
    12    6   17 1
    13    7    8 1
    14    7   11 1
    15    7   22 1
    16    7   23 1
    17    8   11 1
    18    8   24 1
    19    8   25 1
    20    9   10 1
    21    9   12 1
    22    9   26 1
    23    9   27 1
    24   10   15 1
    25   10   28 1
    26   11   16 1
    27   11   29 1
    28   12   13 1
    29   12   14 1
    30   12   17 1
    31   13   30 1
    32   13   31 1
    33   13   32 1
    34   14   33 1
    35   14   34 1
    36   14   35 1
    37   15   16 1
    38   15   36 1
    39   15   37 1
    40   16   38 1
