@<TRIPOS>MOLECULE
*****
   49    51     0     0     0
SMALL
NO_CHARGES

@<TRIPOS>ATOM
      1 C1         -5.4415   -1.8525   -2.6331 C.ar      1 <0>         0.0000
      2 C2         -5.4949   -0.8441   -1.6606 C.ar      1 <0>         0.0000
      3 C3         -3.7951   -1.9633   -0.3580 C.ar      1 <0>         0.0000
      4 C4          0.2217   -6.7631   -0.3898 C.ar      1 <0>         0.0000
      5 C5          0.3348   -7.3705    0.8788 C.ar      1 <0>         0.0000
      6 C6         -4.5644   -2.9203   -2.4582 C.ar      1 <0>         0.0000
      7 C7         -3.7486   -2.9663   -1.3220 C.ar      1 <0>         0.0000
      8 C8         -4.6821   -0.8839   -0.5164 C.ar      1 <0>         0.0000
      9 C9         -0.7070   -7.0654    1.7903 C.ar      1 <0>         0.0000
     10 C10        -1.6526   -5.6583    0.2277 C.ar      1 <0>         0.0000
     11 C11         1.5214   -8.2585    1.0682 C.2       1 <0>         0.0000
     12 C12        -4.2977   -4.1188   -3.3443 C.3       1 <0>         0.0000
     13 C13        -2.8682   -4.1975   -1.3681 C.3       1 <0>         0.0000
     14 C14        -3.6000   -5.1279   -2.3920 C.3       1 <0>         0.0000
     15 C15        -4.7768    0.1954    0.5386 C.3       1 <0>         0.0000
     16 C16        -4.6184   -6.0514   -1.7161 C.3       1 <0>         0.0000
     17 C17        -0.5241   -6.6300    4.2743 C.3       1 <0>         0.0000
     18 C18         3.6190   -8.7841    2.4027 C.3       1 <0>         0.0000
     19 C19        -0.8710   -7.6506    3.1757 C.3       1 <0>         0.0000
     20 C20         2.1135   -8.5062    2.4542 C.3       1 <0>         0.0000
     21 N1         -0.7385   -5.9167   -0.7374 N.ar      1 <0>         0.0000
     22 N2         -1.6863   -6.2190    1.4538 N.ar      1 <0>         0.0000
     23 N3         -2.6305   -4.7564   -0.0480 N.pl3     1 <0>         0.0000
     24 O1          2.0680   -8.7492    0.0821 O.2       1 <0>         0.0000
     25 H1         -6.0847   -1.7981   -3.5090 H         1 <0>         0.0000
     26 H2         -6.1836   -0.0120   -1.7919 H         1 <0>         0.0000
     27 H3         -3.1464   -2.0107    0.5151 H         1 <0>         0.0000
     28 H4          0.9725   -6.9908   -1.1431 H         1 <0>         0.0000
     29 H5         -5.2063   -4.5297   -3.7971 H         1 <0>         0.0000
     30 H6         -3.6272   -3.8373   -4.1670 H         1 <0>         0.0000
     31 H7         -1.8879   -3.9377   -1.7807 H         1 <0>         0.0000
     32 H8         -2.8643   -5.7377   -2.9230 H         1 <0>         0.0000
     33 H9         -5.4524   -0.1040    1.3492 H         1 <0>         0.0000
     34 H10        -3.8003    0.4015    0.9880 H         1 <0>         0.0000
     35 H11        -5.1605    1.1307    0.1207 H         1 <0>         0.0000
     36 H12        -5.3795   -5.4784   -1.1731 H         1 <0>         0.0000
     37 H13        -4.1367   -6.7328   -1.0085 H         1 <0>         0.0000
     38 H14        -5.1331   -6.6602   -2.4665 H         1 <0>         0.0000
     39 H15         0.5219   -6.3125    4.2149 H         1 <0>         0.0000
     40 H16        -0.6903   -7.0630    5.2658 H         1 <0>         0.0000
     41 H17        -1.1526   -5.7411    4.1738 H         1 <0>         0.0000
     42 H18         3.8354   -9.6366    1.7560 H         1 <0>         0.0000
     43 H19         4.1631   -7.9211    2.0064 H         1 <0>         0.0000
     44 H20         3.9986   -8.9970    3.4070 H         1 <0>         0.0000
     45 H21        -1.9251   -7.9277    3.2752 H         1 <0>         0.0000
     46 H22        -0.2849   -8.5603    3.2981 H         1 <0>         0.0000
     47 H23         1.8960   -7.6627    3.1143 H         1 <0>         0.0000
     48 H24         1.5992   -9.3761    2.8832 H         1 <0>         0.0000
     49 H25        -3.3699   -4.7023    0.6417 H         1 <0>         0.0000
@<TRIPOS>BOND
     1    1    2 ar
     2    1    6 ar
     3    1   25 1
     4    2    8 ar
     5    2   26 1
     6    3    7 ar
     7    3    8 ar
     8    3   27 1
     9    4    5 ar
    10    4   21 ar
    11    4   28 1
    12    5    9 ar
    13    5   11 1
    14    6    7 ar
    15    6   12 1
    16    7   13 1
    17    8   15 1
    18    9   19 1
    19    9   22 ar
    20   10   21 ar
    21   10   22 ar
    22   10   23 1
    23   11   20 1
    24   11   24 2
    25   12   14 1
    26   12   29 1
    27   12   30 1
    28   13   14 1
    29   13   23 1
    30   13   31 1
    31   14   16 1
    32   14   32 1
    33   15   33 1
    34   15   34 1
    35   15   35 1
    36   16   36 1
    37   16   37 1
    38   16   38 1
    39   17   19 1
    40   17   39 1
    41   17   40 1
    42   17   41 1
    43   18   20 1
    44   18   42 1
    45   18   43 1
    46   18   44 1
    47   19   45 1
    48   19   46 1
    49   20   47 1
    50   20   48 1
    51   23   49 1
