@<TRIPOS>MOLECULE
*****
   32    33     0     0     0
SMALL
NO_CHARGES

@<TRIPOS>ATOM
      1 C1          0.4373    3.1642   -0.1670 C.ar      1 <0>         0.0000
      2 C2          1.9860    1.8592    1.1191 C.ar      1 <0>         0.0000
      3 C3          1.3547    4.2138   -0.2336 C.ar      1 <0>         0.0000
      4 C4          2.9172    2.8998    1.0663 C.ar      1 <0>         0.0000
      5 C5         -3.7004    3.5821    1.3916 C.2       1 <0>         0.0000
      6 C6         -2.3994    3.4434    1.8268 C.2       1 <0>         0.0000
      7 C7         -3.5618    1.6118    2.2324 C.2       1 <0>         0.0000
      8 C8          0.7288    1.9701    0.5085 C.ar      1 <0>         0.0000
      9 C9          2.6013    4.0836    0.3878 C.ar      1 <0>         0.0000
     10 C10         0.1790   -0.3681   -0.2788 C.3       1 <0>         0.0000
     11 C11        -0.6093    0.3979    1.9986 C.3       1 <0>         0.0000
     12 C12        -1.1236    1.5252    2.9014 C.3       1 <0>         0.0000
     13 C13        -0.2836    0.8377    0.5584 C.3       1 <0>         0.0000
     14 N1         -4.4190    2.4324    1.6498 N.2       1 <0>         0.0000
     15 N2         -2.3199    2.1742    2.3703 N.pl3     1 <0>         0.0000
     16 O1          3.4712    5.1452    0.2999 O.3       1 <0>         0.0000
     17 H1         -0.5315    3.2787   -0.6471 H         1 <0>         0.0000
     18 H2          2.2555    0.9477    1.6476 H         1 <0>         0.0000
     19 H3          1.1203    5.1351   -0.7591 H         1 <0>         0.0000
     20 H4          3.8867    2.7889    1.5502 H         1 <0>         0.0000
     21 H5         -4.1570    4.4406    0.9157 H         1 <0>         0.0000
     22 H6         -1.5438    4.1027    1.8018 H         1 <0>         0.0000
     23 H7         -3.7833    0.6107    2.5817 H         1 <0>         0.0000
     24 H8          1.1040   -0.7968    0.1229 H         1 <0>         0.0000
     25 H9          0.3726   -0.0702   -1.3137 H         1 <0>         0.0000
     26 H10        -0.5833   -1.1553   -0.2851 H         1 <0>         0.0000
     27 H11        -1.3551   -0.4048    1.9607 H         1 <0>         0.0000
     28 H12         0.2810   -0.0321    2.4742 H         1 <0>         0.0000
     29 H13        -0.3587    2.2958    3.0177 H         1 <0>         0.0000
     30 H14        -1.3486    1.1331    3.8988 H         1 <0>         0.0000
     31 H15        -1.2134    1.2118    0.1156 H         1 <0>         0.0000
     32 H16         4.2943    4.9196    0.7613 H         1 <0>         0.0000
@<TRIPOS>BOND
     1    1    3 ar
     2    1    8 ar
     3    1   17 1
     4    2    4 ar
     5    2    8 ar
     6    2   18 1
     7    3    9 ar
     8    3   19 1
     9    4    9 ar
    10    4   20 1
    11    5    6 2
    12    5   14 1
    13    5   21 1
    14    6   15 1
    15    6   22 1
    16    7   14 2
    17    7   15 1
    18    7   23 1
    19    8   13 1
    20    9   16 1
    21   10   13 1
    22   10   24 1
    23   10   25 1
    24   10   26 1
    25   11   12 1
    26   11   13 1
    27   11   27 1
    28   11   28 1
    29   12   15 1
    30   12   29 1
    31   12   30 1
    32   13   31 1
    33   16   32 1
