@<TRIPOS>MOLECULE
*****
   56    58     0     0     0
SMALL
NO_CHARGES

@<TRIPOS>ATOM
      1 C1          0.1086    3.0807   -1.0803 C.ar      1 <0>         0.0000
      2 C2          2.3707    2.8124   -1.8129 C.ar      1 <0>         0.0000
      3 C3         -0.2122    3.7072   -2.2827 C.ar      1 <0>         0.0000
      4 C4          2.0732    3.4424   -3.0239 C.ar      1 <0>         0.0000
      5 C5          1.4009    2.5986   -0.8260 C.ar      1 <0>         0.0000
      6 C6          0.7661    3.8860   -3.2694 C.ar      1 <0>         0.0000
      7 C7          0.7908   -0.5996   -1.4947 C.3       1 <0>         0.0000
      8 C8         -0.6131   -1.2281   -1.3101 C.3       1 <0>         0.0000
      9 C9          0.6693    1.7384    1.4901 C.3       1 <0>         0.0000
     10 C10        -0.3510    0.6478    1.1310 C.3       1 <0>         0.0000
     11 C11         2.4419    0.5065    0.2203 C.3       1 <0>         0.0000
     12 C12         1.4608   -0.6309   -0.0924 C.3       1 <0>         0.0000
     13 C13        -0.6759   -1.6769    0.1657 C.3       1 <0>         0.0000
     14 C14         1.8099    1.8983    0.4700 C.3       1 <0>         0.0000
     15 C15         0.2951   -0.7384    0.9180 C.3       1 <0>         0.0000
     16 C16         0.7171   -1.3524    2.2570 C.3       1 <0>         0.0000
     17 C17        -2.1559   -3.7796    1.8692 C.3       1 <0>         0.0000
     18 C18        -4.1321   -2.3340    1.2999 C.3       1 <0>         0.0000
     19 C19        -2.8917   -3.5194   -0.5376 C.3       1 <0>         0.0000
     20 C20         1.3254    4.7183   -5.4411 C.3       1 <0>         0.0000
     21 C21        -2.7613   -2.8261    0.8268 C.3       1 <0>         0.0000
     22 O1          2.8296    2.7696    1.0232 O.3       1 <0>         0.0000
     23 O2          0.3558    4.5055   -4.4212 O.3       1 <0>         0.0000
     24 O3         -1.9792   -1.6148    0.7358 O.3       1 <0>         0.0000
     25 H1         -0.6762    2.9746   -0.3407 H         1 <0>         0.0000
     26 H2          3.3928    2.4943   -1.6324 H         1 <0>         0.0000
     27 H3         -1.2179    4.0706   -2.4738 H         1 <0>         0.0000
     28 H4          2.8617    3.5844   -3.7547 H         1 <0>         0.0000
     29 H5          1.3991   -1.1528   -2.2170 H         1 <0>         0.0000
     30 H6          0.7078    0.4183   -1.8748 H         1 <0>         0.0000
     31 H7         -1.4043   -0.4938   -1.4863 H         1 <0>         0.0000
     32 H8         -0.7947   -2.0612   -1.9939 H         1 <0>         0.0000
     33 H9          0.1732    2.7020    1.6428 H         1 <0>         0.0000
     34 H10         1.1334    1.4910    2.4536 H         1 <0>         0.0000
     35 H11        -1.1064    0.5735    1.9190 H         1 <0>         0.0000
     36 H12        -0.8924    0.9338    0.2265 H         1 <0>         0.0000
     37 H13         2.9861    0.2386    1.1371 H         1 <0>         0.0000
     38 H14         3.1976    0.5795   -0.5678 H         1 <0>         0.0000
     39 H15         2.0335   -1.5660   -0.0248 H         1 <0>         0.0000
     40 H16        -0.2733   -2.6952    0.2496 H         1 <0>         0.0000
     41 H17         1.2028   -2.3239    2.1073 H         1 <0>         0.0000
     42 H18        -0.1584   -1.5075    2.8958 H         1 <0>         0.0000
     43 H19         1.4192   -0.7159    2.8046 H         1 <0>         0.0000
     44 H20        -1.1595   -4.1244    1.5767 H         1 <0>         0.0000
     45 H21        -2.0726   -3.2768    2.8372 H         1 <0>         0.0000
     46 H22        -2.7885   -4.6651    1.9922 H         1 <0>         0.0000
     47 H23        -4.5642   -1.6511    0.5624 H         1 <0>         0.0000
     48 H24        -4.0321   -1.7952    2.2470 H         1 <0>         0.0000
     49 H25        -4.8191   -3.1734    1.4462 H         1 <0>         0.0000
     50 H26        -3.2743   -2.8196   -1.2864 H         1 <0>         0.0000
     51 H27        -1.9318   -3.9102   -0.8884 H         1 <0>         0.0000
     52 H28        -3.5856   -4.3636   -0.4673 H         1 <0>         0.0000
     53 H29         0.7977    5.2154   -6.2565 H         1 <0>         0.0000
     54 H30         1.7412    3.7696   -5.8034 H         1 <0>         0.0000
     55 H31         2.1411    5.3630   -5.0908 H         1 <0>         0.0000
     56 H32         3.1518    2.3555    1.8411 H         1 <0>         0.0000
@<TRIPOS>BOND
     1    1    3 ar
     2    1    5 ar
     3    1   25 1
     4    2    4 ar
     5    2    5 ar
     6    2   26 1
     7    3    6 ar
     8    3   27 1
     9    4    6 ar
    10    4   28 1
    11    5   14 1
    12    6   23 1
    13    7    8 1
    14    7   12 1
    15    7   29 1
    16    7   30 1
    17    8   13 1
    18    8   31 1
    19    8   32 1
    20    9   10 1
    21    9   14 1
    22    9   33 1
    23    9   34 1
    24   10   15 1
    25   10   35 1
    26   10   36 1
    27   11   12 1
    28   11   14 1
    29   11   37 1
    30   11   38 1
    31   12   15 1
    32   12   39 1
    33   13   15 1
    34   13   24 1
    35   13   40 1
    36   14   22 1
    37   15   16 1
    38   16   41 1
    39   16   42 1
    40   16   43 1
    41   17   21 1
    42   17   44 1
    43   17   45 1
    44   17   46 1
    45   18   21 1
    46   18   47 1
    47   18   48 1
    48   18   49 1
    49   19   21 1
    50   19   50 1
    51   19   51 1
    52   19   52 1
    53   20   23 1
    54   20   53 1
    55   20   54 1
    56   20   55 1
    57   21   24 1
    58   22   56 1
