@<TRIPOS>MOLECULE
*****
   31    32     0     0     0
SMALL
NO_CHARGES

@<TRIPOS>ATOM
      1 C1          2.4072   -2.8171   -4.9837 C.ar      1 <0>         0.0000
      2 C2          1.3270   -3.5712   -4.5251 C.ar      1 <0>         0.0000
      3 C3          2.7049   -1.5913   -4.3883 C.ar      1 <0>         0.0000
      4 C4          0.5446   -3.0995   -3.4711 C.ar      1 <0>         0.0000
      5 C5          1.9224   -1.1196   -3.3343 C.ar      1 <0>         0.0000
      6 C6          0.8423   -1.8737   -2.8756 C.ar      1 <0>         0.0000
      7 C7         -0.6710   -2.5078   -0.8859 C.3       1 <0>         0.0000
      8 C8          0.7330   -0.4542   -0.6828 C.3       1 <0>         0.0000
      9 C9          0.3498   -3.2887   -0.0669 C.3       1 <0>         0.0000
     10 C10         1.7424   -1.2217    0.1665 C.3       1 <0>         0.0000
     11 C11        -0.0242   -1.3523   -1.7086 C.3       1 <0>         0.0000
     12 C12        -1.1528   -0.5007   -2.3346 C.3       1 <0>         0.0000
     13 N1          1.0518   -2.3497    0.8555 N.4       1 <0>         0.0000
     14 H1          3.0157   -3.1835   -5.8053 H         1 <0>         0.0000
     15 H2          1.0943   -4.5250   -4.9891 H         1 <0>         0.0000
     16 H3          3.5452   -1.0035   -4.7460 H         1 <0>         0.0000
     17 H4         -0.2949   -3.6939   -3.1203 H         1 <0>         0.0000
     18 H5          2.1619   -0.1635   -2.8763 H         1 <0>         0.0000
     19 H6         -1.1825   -3.2042   -1.5629 H         1 <0>         0.0000
     20 H7         -1.4410   -2.1031   -0.2153 H         1 <0>         0.0000
     21 H8          0.0090    0.0356   -0.0174 H         1 <0>         0.0000
     22 H9          1.2609    0.3503   -1.2111 H         1 <0>         0.0000
     23 H10        -0.1384   -4.0409    0.5601 H         1 <0>         0.0000
     24 H11         1.1104   -3.7780   -0.6833 H         1 <0>         0.0000
     25 H12         2.5549   -1.6494   -0.4293 H         1 <0>         0.0000
     26 H13         2.1696   -0.5861    0.9479 H         1 <0>         0.0000
     27 H14        -1.7929   -0.1095   -1.5478 H         1 <0>         0.0000
     28 H15        -1.7439   -1.1174   -3.0070 H         1 <0>         0.0000
     29 H16        -0.7189    0.3262   -2.8912 H         1 <0>         0.0000
     30 H17         1.7382   -2.8757    1.4136 H         1 <0>         0.0000
     31 H18         0.3764   -1.9713    1.5345 H         1 <0>         0.0000
@<TRIPOS>BOND
     1    1    3 ar
     2    1    2 ar
     3    1   14 1
     4    2    4 ar
     5    2   15 1
     6    3    5 ar
     7    3   16 1
     8    4    6 ar
     9    4   17 1
    10    5    6 ar
    11    5   18 1
    12    6   11 1
    13    7    9 1
    14    7   11 1
    15    7   19 1
    16    7   20 1
    17    8   10 1
    18    8   11 1
    19    8   21 1
    20    8   22 1
    21    9   13 1
    22    9   23 1
    23    9   24 1
    24   10   13 1
    25   10   25 1
    26   10   26 1
    27   11   12 1
    28   12   27 1
    29   12   28 1
    30   12   29 1
    31   13   30 1
    32   13   31 1
