@<TRIPOS>MOLECULE
*****
   43    45     0     0     0
SMALL
NO_CHARGES

@<TRIPOS>ATOM
      1 C1          4.0500    0.8197   -7.3908 C.ar      1 <0>         0.0000
      2 C2          3.4508    2.0800   -7.6003 C.ar      1 <0>         0.0000
      3 C3          3.4265   -0.1354   -6.5897 C.ar      1 <0>         0.0000
      4 C4          2.2190    2.4116   -7.0342 C.ar      1 <0>         0.0000
      5 C5          2.1982    0.1935   -6.0079 C.ar      1 <0>         0.0000
      6 C6          1.6017    1.4439   -6.2345 C.ar      1 <0>         0.0000
      7 C7          1.3343   -0.5539   -5.0792 C.2       1 <0>         0.0000
      8 C8         -0.5030    1.0033   -2.6996 C.2       1 <0>         0.0000
      9 C9         -0.3138   -1.5502   -0.1704 C.3       1 <0>         0.0000
     10 C10         0.4183   -0.9316   -1.3631 C.3       1 <0>         0.0000
     11 C11         0.1951    1.3069   -0.3839 C.3       1 <0>         0.0000
     12 C12        -0.5257    0.7427    0.8521 C.3       1 <0>         0.0000
     13 C13        -0.1372   -0.7348    1.1261 C.3       1 <0>         0.0000
     14 C14        -0.3226    1.6653    2.0579 C.3       1 <0>         0.0000
     15 C15         1.2779   -0.8885    1.6887 C.3       1 <0>         0.0000
     16 C16        -0.7972    0.1101   -3.9131 C.3       1 <0>         0.0000
     17 N1          0.3509    1.5086   -5.5981 N.pl3     1 <0>         0.0000
     18 N2          0.2543    0.2898   -4.8825 N.am      1 <0>         0.0000
     19 N3         -0.0214    0.4542   -1.5553 N.am      1 <0>         0.0000
     20 O1          1.4589   -1.6676   -4.5591 O.2       1 <0>         0.0000
     21 O2         -0.6868    2.2233   -2.8429 O.2       1 <0>         0.0000
     22 O3         -0.9886   -1.2825    2.1517 O.3       1 <0>         0.0000
     23 H1          5.0051    0.5989   -7.8588 H         1 <0>         0.0000
     24 H2          3.9582    2.8110   -8.2245 H         1 <0>         0.0000
     25 H3          3.8722   -1.1091   -6.4073 H         1 <0>         0.0000
     26 H4          1.7588    3.3797   -7.2114 H         1 <0>         0.0000
     27 H5         -1.3845   -1.6063   -0.4110 H         1 <0>         0.0000
     28 H6          0.0370   -2.5740   -0.0053 H         1 <0>         0.0000
     29 H7          1.5002   -0.9205   -1.1821 H         1 <0>         0.0000
     30 H8          0.2810   -1.5160   -2.2693 H         1 <0>         0.0000
     31 H9         -0.1724    2.3043   -0.6224 H         1 <0>         0.0000
     32 H10         1.2739    1.3877   -0.1940 H         1 <0>         0.0000
     33 H11        -1.5985    0.7333    0.6065 H         1 <0>         0.0000
     34 H12         0.7398    1.8456    2.2526 H         1 <0>         0.0000
     35 H13        -0.7628    1.2278    2.9577 H         1 <0>         0.0000
     36 H14        -0.7947    2.6374    1.8809 H         1 <0>         0.0000
     37 H15         1.3471   -0.4205    2.6728 H         1 <0>         0.0000
     38 H16         2.0311   -0.4371    1.0383 H         1 <0>         0.0000
     39 H17         1.5145   -1.9499    1.8042 H         1 <0>         0.0000
     40 H18        -1.7436    0.4552   -4.3377 H         1 <0>         0.0000
     41 H19        -0.8645   -0.9569   -3.7112 H         1 <0>         0.0000
     42 H20         0.1960    2.2996   -4.9668 H         1 <0>         0.0000
     43 H21        -1.9030   -1.2598    1.8253 H         1 <0>         0.0000
@<TRIPOS>BOND
     1    1    2 ar
     2    1    3 ar
     3    1   23 1
     4    2    4 ar
     5    2   24 1
     6    3    5 ar
     7    3   25 1
     8    4    6 ar
     9    4   26 1
    10    5    6 ar
    11    5    7 1
    12    6   17 1
    13    7   18 am
    14    7   20 2
    15    8   16 1
    16    8   19 am
    17    8   21 2
    18    9   10 1
    19    9   13 1
    20    9   27 1
    21    9   28 1
    22   10   19 1
    23   10   29 1
    24   10   30 1
    25   11   12 1
    26   11   19 1
    27   11   31 1
    28   11   32 1
    29   12   13 1
    30   12   14 1
    31   12   33 1
    32   13   15 1
    33   13   22 1
    34   14   34 1
    35   14   35 1
    36   14   36 1
    37   15   37 1
    38   15   38 1
    39   15   39 1
    40   16   18 1
    41   16   40 1
    42   16   41 1
    43   17   18 1
    44   17   42 1
    45   22   43 1
