@<TRIPOS>MOLECULE
*****
   28    29     0     0     0
SMALL
NO_CHARGES

@<TRIPOS>ATOM
      1 C1          2.9485    0.3451    0.8244 C.2       1 <0>         0.0000
      2 C2          3.9445   -0.6196    1.2324 C.2       1 <0>         0.0000
      3 C3          2.0849   -0.3010   -0.0073 C.2       1 <0>         0.0000
      4 C4          3.6126   -1.7918    0.6091 C.2       1 <0>         0.0000
      5 C5         -0.3938    1.2356    0.9935 C.3       1 <0>         0.0000
      6 C6         -1.4628    0.1519    0.8565 C.3       1 <0>         0.0000
      7 C7         -0.2278   -0.9301   -0.8316 C.3       1 <0>         0.0000
      8 C8          0.8784    0.1425   -0.7861 C.3       1 <0>         0.0000
      9 C9          5.0987   -0.3610    2.1570 C.3       1 <0>         0.0000
     10 C10         4.1964   -3.1625    0.5937 C.3       1 <0>         0.0000
     11 N1          0.3923    1.4234   -0.2382 N.3       1 <0>         0.0000
     12 O1          2.4756   -1.6091   -0.1537 O.3       1 <0>         0.0000
     13 O2         -0.8840   -1.0789    0.4233 O.3       1 <0>         0.0000
     14 H1          2.8847    1.3869    1.1086 H         1 <0>         0.0000
     15 H2         -0.8510    2.1942    1.2629 H         1 <0>         0.0000
     16 H3          0.2935    0.9567    1.7977 H         1 <0>         0.0000
     17 H4         -1.9460   -0.0566    1.8159 H         1 <0>         0.0000
     18 H5         -2.2386    0.4697    0.1377 H         1 <0>         0.0000
     19 H6         -0.9617   -0.6410   -1.6032 H         1 <0>         0.0000
     20 H7          0.1804   -1.9102   -1.0857 H         1 <0>         0.0000
     21 H8          1.1861    0.3332   -1.8241 H         1 <0>         0.0000
     22 H9          4.7513   -0.0211    3.1394 H         1 <0>         0.0000
     23 H10         5.7019   -1.2598    2.3121 H         1 <0>         0.0000
     24 H11         5.7593    0.4178    1.7589 H         1 <0>         0.0000
     25 H12         3.4840   -3.9043    0.9731 H         1 <0>         0.0000
     26 H13         4.4819   -3.4649   -0.4207 H         1 <0>         0.0000
     27 H14         5.0896   -3.1980    1.2214 H         1 <0>         0.0000
     28 H15        -0.1939    1.8687   -0.9422 H         1 <0>         0.0000
@<TRIPOS>BOND
     1    1    2 1
     2    1    3 2
     3    1   14 1
     4    2    4 2
     5    2    9 1
     6    3    8 1
     7    3   12 1
     8    4   10 1
     9    4   12 1
    10    5    6 1
    11    5   11 1
    12    5   15 1
    13    5   16 1
    14    6   13 1
    15    6   17 1
    16    6   18 1
    17    7    8 1
    18    7   13 1
    19    7   19 1
    20    7   20 1
    21    8   11 1
    22    8   21 1
    23    9   22 1
    24    9   23 1
    25    9   24 1
    26   10   25 1
    27   10   26 1
    28   10   27 1
    29   11   28 1
