@<TRIPOS>MOLECULE
*****
   39    41     0     0     0
SMALL
NO_CHARGES

@<TRIPOS>ATOM
      1 C1          1.9352   -4.4780   -1.2473 C.ar      1 <0>         0.0000
      2 C2          2.8481   -5.3348   -0.6136 C.ar      1 <0>         0.0000
      3 C3          0.5747   -4.5120   -0.9235 C.ar      1 <0>         0.0000
      4 C4          2.4219   -6.2473    0.3602 C.ar      1 <0>         0.0000
      5 C5         -4.5047   -9.9951   -0.1811 C.2       1 <0>         0.0000
      6 C6          0.1455   -5.4221    0.0408 C.ar      1 <0>         0.0000
      7 C7         -4.0987   -9.0852    0.8537 C.2       1 <0>         0.0000
      8 C8          1.0656   -6.2678    0.6546 C.ar      1 <0>         0.0000
      9 C9         -5.6116  -10.6762    0.2551 C.2       1 <0>         0.0000
     10 C10        -4.9993   -9.2434    1.9173 C.2       1 <0>         0.0000
     11 C11        -1.2570   -5.6150    0.5075 C.2       1 <0>         0.0000
     12 C12        -2.9329   -8.2166    0.6862 C.2       1 <0>         0.0000
     13 C13        -6.4179  -11.7361   -0.4264 C.3       1 <0>         0.0000
     14 C14        -5.1444   -8.5931    3.2596 C.3       1 <0>         0.0000
     15 C15        -7.0000  -10.6770    2.3751 C.3       1 <0>         0.0000
     16 C16        -2.4952   -7.2936    1.8465 C.3       1 <0>         0.0000
     17 N1         -5.9086  -10.2055    1.5371 N.pl3     1 <0>         0.0000
     18 N2         -1.2777   -6.5757    1.5215 N.am      1 <0>         0.0000
     19 O1         -2.2451   -5.0212    0.1114 O.2       1 <0>         0.0000
     20 O2         -2.2916   -8.1912   -0.3584 O.2       1 <0>         0.0000
     21 O3          0.2302   -8.7155    1.4898 O.2       1 <0>         0.0000
     22 O4          0.6596   -6.9380    3.2178 O.2       1 <0>         0.0000
     23 S1          0.2512   -7.3028    1.8609 S.o2      1 <0>         0.0000
     24 H1          2.2927   -3.7804   -1.9993 H         1 <0>         0.0000
     25 H2          3.9002   -5.2925   -0.8808 H         1 <0>         0.0000
     26 H3         -0.1473   -3.8577   -1.4027 H         1 <0>         0.0000
     27 H4          3.1216   -6.9123    0.8571 H         1 <0>         0.0000
     28 H5         -4.0048  -10.1115   -1.1325 H         1 <0>         0.0000
     29 H6         -6.4242  -12.6808    0.1311 H         1 <0>         0.0000
     30 H7         -7.4606  -11.4336   -0.5838 H         1 <0>         0.0000
     31 H8         -5.9826  -11.9362   -1.4079 H         1 <0>         0.0000
     32 H9         -6.0967   -8.0542    3.3409 H         1 <0>         0.0000
     33 H10        -5.1205   -9.3336    4.0681 H         1 <0>         0.0000
     34 H11        -4.3524   -7.8756    3.4545 H         1 <0>         0.0000
     35 H12        -6.6222  -11.2097    3.2545 H         1 <0>         0.0000
     36 H13        -7.6217   -9.8421    2.7114 H         1 <0>         0.0000
     37 H14        -7.6273  -11.3594    1.8035 H         1 <0>         0.0000
     38 H15        -2.3289   -7.8677    2.7606 H         1 <0>         0.0000
     39 H16        -3.2734   -6.5519    2.0438 H         1 <0>         0.0000
@<TRIPOS>BOND
     1    1    2 ar
     2    1    3 ar
     3    1   24 1
     4    2    4 ar
     5    2   25 1
     6    3    6 ar
     7    3   26 1
     8    4    8 ar
     9    4   27 1
    10    5    7 1
    11    5    9 2
    12    5   28 1
    13    6    8 ar
    14    6   11 1
    15    7   10 2
    16    7   12 1
    17    8   23 1
    18    9   13 1
    19    9   17 1
    20   10   14 1
    21   10   17 1
    22   11   18 am
    23   11   19 2
    24   12   16 1
    25   12   20 2
    26   13   29 1
    27   13   30 1
    28   13   31 1
    29   14   32 1
    30   14   33 1
    31   14   34 1
    32   15   17 1
    33   15   35 1
    34   15   36 1
    35   15   37 1
    36   16   18 1
    37   16   38 1
    38   16   39 1
    39   18   23 1
    40   21   23 2
    41   22   23 2
