@<TRIPOS>MOLECULE
*****
   23    23     0     0     0
SMALL
NO_CHARGES

@<TRIPOS>ATOM
      1 C1          7.8094   -2.8325    2.2557 C.1       1 <0>         0.0000
      2 C2          4.0789    1.3130   -0.0465 C.ar      1 <0>         0.0000
      3 C3          3.0659    1.5101    0.8904 C.ar      1 <0>         0.0000
      4 C4          3.8074   -0.5012    2.0498 C.ar      1 <0>         0.0000
      5 C5          4.8428   -0.6986    1.1283 C.ar      1 <0>         0.0000
      6 C6          4.9596    0.2406    0.0917 C.ar      1 <0>         0.0000
      7 C7          2.9568    0.5930    1.9299 C.ar      1 <0>         0.0000
      8 C8          7.0518   -1.6082    1.9723 C.3       1 <0>         0.0000
      9 C9          5.7111   -1.9419    1.2691 C.3       1 <0>         0.0000
     10 N1          8.3753   -3.8300    2.4506 N.1       1 <0>         0.0000
     11 N2          5.9664   -2.5259   -0.0476 N.3       1 <0>         0.0000
     12 N3          6.0398    0.1793   -0.9145 N.pl3     1 <0>         0.0000
     13 O1          7.2027    0.2317   -0.5052 O.3       1 <0>         0.0000
     14 O2          5.7021    0.1606   -2.0978 O.2       1 <0>         0.0000
     15 F1          1.9762    0.7532    2.8463 F         1 <0>         0.0000
     16 H1          4.1973    1.9933   -0.8835 H         1 <0>         0.0000
     17 H2          2.3733    2.3420    0.8170 H         1 <0>         0.0000
     18 H3          3.6450   -1.2094    2.8573 H         1 <0>         0.0000
     19 H4          6.8553   -1.0892    2.9150 H         1 <0>         0.0000
     20 H5          7.6490   -0.9511    1.3375 H         1 <0>         0.0000
     21 H6          5.1693   -2.6244    1.9410 H         1 <0>         0.0000
     22 H7          5.1103   -2.9270   -0.4249 H         1 <0>         0.0000
     23 H8          6.6477   -3.2806    0.0220 H         1 <0>         0.0000
@<TRIPOS>BOND
     1    1    8 1
     2    1   10 3
     3    2    3 ar
     4    2    6 ar
     5    2   16 1
     6    3    7 ar
     7    3   17 1
     8    4    5 ar
     9    4    7 ar
    10    4   18 1
    11    5    6 ar
    12    5    9 1
    13    6   12 1
    14    7   15 1
    15    8    9 1
    16    8   19 1
    17    8   20 1
    18    9   11 1
    19    9   21 1
    20   11   22 1
    21   11   23 1
    22   12   13 1
    23   12   14 2
