@<TRIPOS>MOLECULE
*****
   39    42     0     0     0
SMALL
NO_CHARGES

@<TRIPOS>ATOM
      1 C1          3.2315   -0.5261    7.3915 C.ar      1 <0>         0.0000
      2 C2          5.1946    4.3514   -2.6815 C.ar      1 <0>         0.0000
      3 C3          2.8056   -1.1302    6.2258 C.ar      1 <0>         0.0000
      4 C4          4.5526    3.3861   -1.9041 C.ar      1 <0>         0.0000
      5 C5          3.2584    0.8852    7.5040 C.ar      1 <0>         0.0000
      6 C6          1.5481   -0.0421    2.8740 C.ar      1 <0>         0.0000
      7 C7          4.4199    5.1642   -3.5140 C.ar      1 <0>         0.0000
      8 C8          2.4877    4.1327   -2.8492 C.ar      1 <0>         0.0000
      9 C9          2.3892   -0.3324    5.1302 C.ar      1 <0>         0.0000
     10 C10         3.1604    3.2598   -1.9798 C.ar      1 <0>         0.0000
     11 C11         2.4042    1.0950    5.2135 C.ar      1 <0>         0.0000
     12 C12         1.9379   -0.8832    3.8939 C.ar      1 <0>         0.0000
     13 C13         2.8555    1.6572    6.4399 C.ar      1 <0>         0.0000
     14 C14         1.6047    1.3619    3.0791 C.ar      1 <0>         0.0000
     15 C15         1.0666    2.6022   -0.5114 C.3       1 <0>         0.0000
     16 C16         2.8890    1.8419    0.2315 C.3       1 <0>         0.0000
     17 C17         2.4094    2.2233   -1.1930 C.3       1 <0>         0.0000
     18 C18         1.1434    2.2944    1.9766 C.3       1 <0>         0.0000
     19 N1          3.0859    5.0642   -3.6028 N.ar      1 <0>         0.0000
     20 N2          2.0227    1.9222    4.1997 N.ar      1 <0>         0.0000
     21 N3          1.4679    1.7817    0.6556 N.3       1 <0>         0.0000
     22 O1          1.9201   -2.2442    3.7953 O.3       1 <0>         0.0000
     23 F1          2.8848    3.0014    6.5545 F         1 <0>         0.0000
     24 H1          3.5508   -1.1304    8.2359 H         1 <0>         0.0000
     25 H2          6.2731    4.4773   -2.6435 H         1 <0>         0.0000
     26 H3          2.7823   -2.2105    6.1323 H         1 <0>         0.0000
     27 H4          5.1273    2.7408   -1.2434 H         1 <0>         0.0000
     28 H5          3.5912    1.3722    8.4156 H         1 <0>         0.0000
     29 H6          1.2068   -0.4167    1.9122 H         1 <0>         0.0000
     30 H7          4.8878    5.9282   -4.1330 H         1 <0>         0.0000
     31 H8          1.4026    4.0771   -2.9386 H         1 <0>         0.0000
     32 H9          1.0227    3.6792   -0.2849 H         1 <0>         0.0000
     33 H10         0.1321    2.2924   -0.9908 H         1 <0>         0.0000
     34 H11         3.4479    0.9094    0.3619 H         1 <0>         0.0000
     35 H12         3.4398    2.6654    0.7130 H         1 <0>         0.0000
     36 H13         2.2773    1.3185   -1.7956 H         1 <0>         0.0000
     37 H14         0.0516    2.3981    2.0381 H         1 <0>         0.0000
     38 H15         1.5765    3.2892    2.1711 H         1 <0>         0.0000
     39 H16         1.5888   -2.4926    2.9165 H         1 <0>         0.0000
@<TRIPOS>BOND
     1    1    3 ar
     2    1    5 ar
     3    1   24 1
     4    2    4 ar
     5    2    7 ar
     6    2   25 1
     7    3    9 ar
     8    3   26 1
     9    4   10 ar
    10    4   27 1
    11    5   13 ar
    12    5   28 1
    13    6   12 ar
    14    6   14 ar
    15    6   29 1
    16    7   19 ar
    17    7   30 1
    18    8   10 ar
    19    8   19 ar
    20    8   31 1
    21    9   11 ar
    22    9   12 ar
    23   10   17 1
    24   11   13 ar
    25   11   20 ar
    26   12   22 1
    27   13   23 1
    28   14   18 1
    29   14   20 ar
    30   15   17 1
    31   15   21 1
    32   15   32 1
    33   15   33 1
    34   16   17 1
    35   16   21 1
    36   16   34 1
    37   16   35 1
    38   17   36 1
    39   18   21 1
    40   18   37 1
    41   18   38 1
    42   22   39 1
