@<TRIPOS>MOLECULE
*****
   50    52     0     0     0
SMALL
NO_CHARGES

@<TRIPOS>ATOM
      1 C1         -0.0407   -4.2522    1.5386 C.ar      1 <0>         0.0000
      2 C2          0.9096   -5.2776    1.6142 C.ar      1 <0>         0.0000
      3 C3          0.0802   -3.2538    0.5709 C.ar      1 <0>         0.0000
      4 C4          1.9734   -5.2946    0.7118 C.ar      1 <0>         0.0000
      5 C5          5.1752   -4.0287   -2.0693 C.2       1 <0>         0.0000
      6 C6          1.1487   -3.2511   -0.3372 C.ar      1 <0>         0.0000
      7 C7          2.0885   -4.2879   -0.2516 C.ar      1 <0>         0.0000
      8 C8          4.2251   -4.4874   -3.0224 C.2       1 <0>         0.0000
      9 C9          4.4834   -3.9214   -0.8730 C.2       1 <0>         0.0000
     10 C10         1.5140    0.9522    0.7399 C.3       1 <0>         0.0000
     11 C11         1.9316   -0.3819    0.1231 C.3       1 <0>         0.0000
     12 C12         0.7268    0.1412   -1.8999 C.3       1 <0>         0.0000
     13 C13         0.2726    1.5025   -1.3583 C.3       1 <0>         0.0000
     14 C14         1.2670    2.0485   -0.3113 C.3       1 <0>         0.0000
     15 C15         4.4315   -4.7823   -4.4783 C.3       1 <0>         0.0000
     16 C16         4.9155   -3.4563    0.4821 C.3       1 <0>         0.0000
     17 C17        -0.0132    2.4785   -2.5049 C.3       1 <0>         0.0000
     18 C18         2.5837    2.5464   -0.9238 C.3       1 <0>         0.0000
     19 C19         1.2633   -2.1555   -1.3780 C.3       1 <0>         0.0000
     20 N1          3.0252   -4.6506   -2.4604 N.2       1 <0>         0.0000
     21 N2          3.2008   -4.3134   -1.1464 N.pl3     1 <0>         0.0000
     22 N3          0.9225   -0.8409   -0.8330 N.3       1 <0>         0.0000
     23 O1          0.5896    3.1620    0.3115 O.3       1 <0>         0.0000
     24 H1         -0.8751   -4.2321    2.2352 H         1 <0>         0.0000
     25 H2          0.8182   -6.0596    2.3632 H         1 <0>         0.0000
     26 H3         -0.6393   -2.4418    0.5184 H         1 <0>         0.0000
     27 H4          2.7166   -6.0867    0.7365 H         1 <0>         0.0000
     28 H5          6.2219   -3.8046   -2.2308 H         1 <0>         0.0000
     29 H6          0.5835    0.8081    1.2987 H         1 <0>         0.0000
     30 H7          2.2818    1.2838    1.4516 H         1 <0>         0.0000
     31 H8          2.9256   -0.2945   -0.3586 H         1 <0>         0.0000
     32 H9          2.0293   -1.1328    0.9131 H         1 <0>         0.0000
     33 H10        -0.0446   -0.2410   -2.5776 H         1 <0>         0.0000
     34 H11         1.6447    0.2657   -2.5081 H         1 <0>         0.0000
     35 H12        -0.6614    1.3362   -0.8085 H         1 <0>         0.0000
     36 H13         5.1521   -5.5953   -4.6210 H         1 <0>         0.0000
     37 H14         3.4845   -5.0773   -4.9362 H         1 <0>         0.0000
     38 H15         4.8169   -3.9052   -5.0100 H         1 <0>         0.0000
     39 H16         4.2949   -2.6248    0.8333 H         1 <0>         0.0000
     40 H17         4.8452   -4.2530    1.2299 H         1 <0>         0.0000
     41 H18         5.9529   -3.1168    0.4426 H         1 <0>         0.0000
     42 H19         0.8475    2.5853   -3.1740 H         1 <0>         0.0000
     43 H20        -0.2708    3.4667   -2.1158 H         1 <0>         0.0000
     44 H21        -0.8546    2.1202   -3.1081 H         1 <0>         0.0000
     45 H22         2.4010    3.3964   -1.5853 H         1 <0>         0.0000
     46 H23         3.0979    1.7690   -1.4955 H         1 <0>         0.0000
     47 H24         3.2674    2.8752   -0.1313 H         1 <0>         0.0000
     48 H25         2.2695   -2.1648   -1.8263 H         1 <0>         0.0000
     49 H26         0.5651   -2.3778   -2.1930 H         1 <0>         0.0000
     50 H27         1.1860    3.5333    0.9817 H         1 <0>         0.0000
@<TRIPOS>BOND
     1    1    2 ar
     2    1    3 ar
     3    1   24 1
     4    2    4 ar
     5    2   25 1
     6    3    6 ar
     7    3   26 1
     8    4    7 ar
     9    4   27 1
    10    5    8 1
    11    5    9 2
    12    5   28 1
    13    6    7 ar
    14    6   19 1
    15    7   21 1
    16    8   15 1
    17    8   20 2
    18    9   16 1
    19    9   21 1
    20   10   11 1
    21   10   14 1
    22   10   29 1
    23   10   30 1
    24   11   22 1
    25   11   31 1
    26   11   32 1
    27   12   13 1
    28   12   22 1
    29   12   33 1
    30   12   34 1
    31   13   14 1
    32   13   17 1
    33   13   35 1
    34   14   18 1
    35   14   23 1
    36   15   36 1
    37   15   37 1
    38   15   38 1
    39   16   39 1
    40   16   40 1
    41   16   41 1
    42   17   42 1
    43   17   43 1
    44   17   44 1
    45   18   45 1
    46   18   46 1
    47   18   47 1
    48   19   22 1
    49   19   48 1
    50   19   49 1
    51   20   21 1
    52   23   50 1
