@<TRIPOS>MOLECULE
*****
   50    52     0     0     0
SMALL
NO_CHARGES

@<TRIPOS>ATOM
      1 C1          2.1635   -5.1160    0.1469 C.ar      1 <0>         0.0000
      2 C2          0.9950   -5.8249    0.4368 C.ar      1 <0>         0.0000
      3 C3          2.1202   -4.0591   -0.7648 C.ar      1 <0>         0.0000
      4 C4         -0.1961   -5.4695   -0.1963 C.ar      1 <0>         0.0000
      5 C5         -3.5852   -3.5140   -2.0582 C.2       1 <0>         0.0000
      6 C6          0.9315   -3.6624   -1.3954 C.ar      1 <0>         0.0000
      7 C7         -0.2338   -4.3958   -1.0937 C.ar      1 <0>         0.0000
      8 C8         -2.8806   -3.6816   -3.2808 C.2       1 <0>         0.0000
      9 C9         -2.6677   -3.7766   -1.0547 C.2       1 <0>         0.0000
     10 C10        -0.9056    0.4616   -0.7807 C.3       1 <0>         0.0000
     11 C11        -0.6644   -0.9918   -1.1890 C.3       1 <0>         0.0000
     12 C12         1.6897   -0.7726   -0.6777 C.3       1 <0>         0.0000
     13 C13         1.5216    0.6870   -0.2318 C.3       1 <0>         0.0000
     14 C14         0.0908    0.9498    0.2847 C.3       1 <0>         0.0000
     15 C15        -3.3907   -3.5271   -4.6821 C.3       1 <0>         0.0000
     16 C16        -2.8285   -3.7293    0.4332 C.3       1 <0>         0.0000
     17 C17         2.6176    1.0825    0.7638 C.3       1 <0>         0.0000
     18 C18        -0.1886    0.3071    1.6512 C.3       1 <0>         0.0000
     19 C19         0.9545   -2.4477   -2.3209 C.3       1 <0>         0.0000
     20 N1         -1.6109   -4.0199   -3.0545 N.2       1 <0>         0.0000
     21 N2         -1.4889   -4.0756   -1.6919 N.pl3     1 <0>         0.0000
     22 N3          0.7006   -1.1513   -1.6832 N.3       1 <0>         0.0000
     23 O1         -0.0106    2.3853    0.4145 O.3       1 <0>         0.0000
     24 H1          3.1035   -5.3896    0.6189 H         1 <0>         0.0000
     25 H2          1.0121   -6.6610    1.1307 H         1 <0>         0.0000
     26 H3          3.0342   -3.5169   -0.9955 H         1 <0>         0.0000
     27 H4         -1.1032   -6.0385   -0.0169 H         1 <0>         0.0000
     28 H5         -4.6214   -3.2315   -1.9233 H         1 <0>         0.0000
     29 H6         -0.7987    1.1031   -1.6614 H         1 <0>         0.0000
     30 H7         -1.9334    0.5709   -0.4085 H         1 <0>         0.0000
     31 H8         -0.8721   -1.6548   -0.3313 H         1 <0>         0.0000
     32 H9         -1.3598   -1.2769   -1.9837 H         1 <0>         0.0000
     33 H10         2.6866   -0.8894   -1.1190 H         1 <0>         0.0000
     34 H11         1.6613   -1.4343    0.2079 H         1 <0>         0.0000
     35 H12         1.6251    1.3141   -1.1250 H         1 <0>         0.0000
     36 H13        -3.7869   -2.5197   -4.8504 H         1 <0>         0.0000
     37 H14        -2.5825   -3.7054   -5.3951 H         1 <0>         0.0000
     38 H15        -4.1989   -4.2368   -4.8904 H         1 <0>         0.0000
     39 H16        -3.0103   -4.7219    0.8596 H         1 <0>         0.0000
     40 H17        -1.9401   -3.3205    0.9223 H         1 <0>         0.0000
     41 H18        -3.6831   -3.0974    0.6873 H         1 <0>         0.0000
     42 H19         2.6505    0.4053    1.6244 H         1 <0>         0.0000
     43 H20         2.4573    2.0987    1.1324 H         1 <0>         0.0000
     44 H21         3.6006    1.0468    0.2809 H         1 <0>         0.0000
     45 H22         0.4495    0.7500    2.4195 H         1 <0>         0.0000
     46 H23        -0.0214   -0.7735    1.6458 H         1 <0>         0.0000
     47 H24        -1.2334    0.4759    1.9406 H         1 <0>         0.0000
     48 H25         1.9457   -2.3940   -2.7844 H         1 <0>         0.0000
     49 H26         0.2268   -2.5779   -3.1216 H         1 <0>         0.0000
     50 H27        -0.9139    2.5913    0.7050 H         1 <0>         0.0000
@<TRIPOS>BOND
     1    1    2 ar
     2    1    3 ar
     3    1   24 1
     4    2    4 ar
     5    2   25 1
     6    3    6 ar
     7    3   26 1
     8    4    7 ar
     9    4   27 1
    10    5    8 1
    11    5    9 2
    12    5   28 1
    13    6    7 ar
    14    6   19 1
    15    7   21 1
    16    8   15 1
    17    8   20 2
    18    9   16 1
    19    9   21 1
    20   10   11 1
    21   10   14 1
    22   10   29 1
    23   10   30 1
    24   11   22 1
    25   11   31 1
    26   11   32 1
    27   12   13 1
    28   12   22 1
    29   12   33 1
    30   12   34 1
    31   13   14 1
    32   13   17 1
    33   13   35 1
    34   14   18 1
    35   14   23 1
    36   15   36 1
    37   15   37 1
    38   15   38 1
    39   16   39 1
    40   16   40 1
    41   16   41 1
    42   17   42 1
    43   17   43 1
    44   17   44 1
    45   18   45 1
    46   18   46 1
    47   18   47 1
    48   19   22 1
    49   19   48 1
    50   19   49 1
    51   20   21 1
    52   23   50 1
