@<TRIPOS>MOLECULE
*****
   25    26     0     0     0
SMALL
NO_CHARGES

@<TRIPOS>ATOM
      1 C1         -5.3178   -0.7222   -2.3826 C.ar      1 <0>         0.0000
      2 C2         -6.0893    0.4343   -2.5643 C.ar      1 <0>         0.0000
      3 C3         -4.0469    1.7711   -2.5159 C.ar      1 <0>         0.0000
      4 C4         -3.2781    0.6149   -2.3312 C.ar      1 <0>         0.0000
      5 C5         -3.9420   -0.6242   -2.2691 C.ar      1 <0>         0.0000
      6 C6         -5.4372    1.6609   -2.6273 C.ar      1 <0>         0.0000
      7 C7          1.8782    2.9641   -1.2741 C.3       1 <0>         0.0000
      8 C8          1.1596    2.3231   -0.0921 C.3       1 <0>         0.0000
      9 C9          0.2525    1.5183   -2.0387 C.3       1 <0>         0.0000
     10 C10        -1.2248    1.8263   -2.2519 C.3       1 <0>         0.0000
     11 O1          0.9786    2.7031   -2.3604 O.3       1 <0>         0.0000
     12 O2          0.5544    1.1728   -0.6942 O.3       1 <0>         0.0000
     13 O3         -1.9261    0.5854   -2.2055 O.3       1 <0>         0.0000
     14 F1         -3.2033   -1.7425   -2.0944 F         1 <0>         0.0000
     15 Br1        -6.4652    3.2639   -2.8720 Br        1 <0>         0.0000
     16 H1         -5.7810   -1.7026   -2.3275 H         1 <0>         0.0000
     17 H2         -7.1678    0.3697   -2.6531 H         1 <0>         0.0000
     18 H3         -3.5791    2.7454   -2.5744 H         1 <0>         0.0000
     19 H4          2.0047    4.0456   -1.1890 H         1 <0>         0.0000
     20 H5          2.8494    2.4886   -1.4611 H         1 <0>         0.0000
     21 H6          1.8225    1.9792    0.7043 H         1 <0>         0.0000
     22 H7          0.3974    2.9937    0.3278 H         1 <0>         0.0000
     23 H8          0.5623    0.6766   -2.6700 H         1 <0>         0.0000
     24 H9         -1.3538    2.3072   -3.2293 H         1 <0>         0.0000
     25 H10        -1.5753    2.5039   -1.4641 H         1 <0>         0.0000
@<TRIPOS>BOND
     1    1    2 ar
     2    1    5 ar
     3    1   16 1
     4    2    6 ar
     5    2   17 1
     6    3    4 ar
     7    3    6 ar
     8    3   18 1
     9    4    5 ar
    10    4   13 1
    11    5   14 1
    12    6   15 1
    13    7    8 1
    14    7   11 1
    15    7   19 1
    16    7   20 1
    17    8   12 1
    18    8   21 1
    19    8   22 1
    20    9   10 1
    21    9   12 1
    22    9   11 1
    23    9   23 1
    24   10   13 1
    25   10   24 1
    26   10   25 1
