@<TRIPOS>MOLECULE
*****
   34    36     0     0     0
SMALL
NO_CHARGES

@<TRIPOS>ATOM
      1 C1         -0.1651   -2.0577    1.1501 C.ar      1 <0>         0.0000
      2 C2          0.9120   -1.1402    1.1264 C.ar      1 <0>         0.0000
      3 C3          2.5188   -5.3189   -1.2697 C.ar      1 <0>         0.0000
      4 C4         -0.0162   -3.2968    0.5655 C.ar      1 <0>         0.0000
      5 C5          2.1127   -1.4673    0.5255 C.ar      1 <0>         0.0000
      6 C6          1.3403   -4.9506   -0.6598 C.ar      1 <0>         0.0000
      7 C7          3.6015   -4.4153   -1.3017 C.ar      1 <0>         0.0000
      8 C8          1.2048   -3.6673   -0.0617 C.ar      1 <0>         0.0000
      9 C9          2.3001   -2.7383   -0.0875 C.ar      1 <0>         0.0000
     10 C10         3.5260   -3.1461   -0.7326 C.ar      1 <0>         0.0000
     11 C11         7.0229    3.1625    0.6224 C.ar      1 <0>         0.0000
     12 C12         5.7350    2.6273    0.8847 C.ar      1 <0>         0.0000
     13 C13         6.3330    0.7373   -0.1539 C.ar      1 <0>         0.0000
     14 C14         4.7370   -2.3345   -0.8533 C.2       1 <0>         0.0000
     15 C15         7.4271    4.5406    1.0589 C.3       1 <0>         0.0000
     16 N1          7.8985    2.4062   -0.0360 N.ar      1 <0>         0.0000
     17 N2          5.3747    1.4182    0.5039 N.ar      1 <0>         0.0000
     18 N3          7.5713    1.1777   -0.4377 N.ar      1 <0>         0.0000
     19 N4          4.8754   -1.1369   -0.3964 N.2       1 <0>         0.0000
     20 N5          6.0698   -0.5349   -0.5998 N.pl3     1 <0>         0.0000
     21 O1          4.8401    3.3850    1.5512 O.3       1 <0>         0.0000
     22 H1         -1.1028   -1.7843    1.6270 H         1 <0>         0.0000
     23 H2          0.7928   -0.1631    1.5881 H         1 <0>         0.0000
     24 H3          2.6225   -6.2991   -1.7267 H         1 <0>         0.0000
     25 H4         -0.8345   -4.0131    0.5754 H         1 <0>         0.0000
     26 H5          2.9256   -0.7543    0.5164 H         1 <0>         0.0000
     27 H6          0.4970   -5.6364   -0.6273 H         1 <0>         0.0000
     28 H7          4.5254   -4.7214   -1.7875 H         1 <0>         0.0000
     29 H8          5.5685   -2.8229   -1.3815 H         1 <0>         0.0000
     30 H9          7.3544    4.6471    2.1465 H         1 <0>         0.0000
     31 H10         8.4566    4.7270    0.7480 H         1 <0>         0.0000
     32 H11         6.7744    5.3015    0.6175 H         1 <0>         0.0000
     33 H12         6.8346   -1.0017   -1.0883 H         1 <0>         0.0000
     34 H13         4.0273    2.8493    1.6320 H         1 <0>         0.0000
@<TRIPOS>BOND
     1    1    2 ar
     2    1    4 ar
     3    1   22 1
     4    2    5 ar
     5    2   23 1
     6    3    6 ar
     7    3    7 ar
     8    3   24 1
     9    4    8 ar
    10    4   25 1
    11    5    9 ar
    12    5   26 1
    13    6    8 ar
    14    6   27 1
    15    7   10 ar
    16    7   28 1
    17    8    9 ar
    18    9   10 ar
    19   10   14 1
    20   11   12 ar
    21   11   15 1
    22   11   16 ar
    23   12   17 ar
    24   12   21 1
    25   13   17 ar
    26   13   18 ar
    27   13   20 1
    28   14   19 2
    29   14   29 1
    30   15   30 1
    31   15   31 1
    32   15   32 1
    33   16   18 ar
    34   19   20 1
    35   20   33 1
    36   21   34 1
