@<TRIPOS>MOLECULE
*****
   25    27     0     0     0
SMALL
NO_CHARGES

@<TRIPOS>ATOM
      1 C1         -0.0398   -2.0918    1.9398 C.ar      1 <0>         0.0000
      2 C2          7.0992    0.4485    7.1049 C.ar      1 <0>         0.0000
      3 C3          1.0335   -1.6425    2.7046 C.ar      1 <0>         0.0000
      4 C4          6.0947    0.8767    6.2572 C.ar      1 <0>         0.0000
      5 C5         -0.7748   -1.1458    1.2218 C.ar      1 <0>         0.0000
      6 C6          7.1698   -0.9268    7.3672 C.ar      1 <0>         0.0000
      7 C7          1.3473   -0.2750    2.7367 C.ar      1 <0>         0.0000
      8 C8          5.2375   -0.1109    5.7376 C.ar      1 <0>         0.0000
      9 C9          0.5310    0.5884    1.9685 C.ar      1 <0>         0.0000
     10 C10         4.1384    0.2624    4.8242 C.2       1 <0>         0.0000
     11 C11         2.4781    0.1571    3.5491 C.2       1 <0>         0.0000
     12 N1         -0.4972    0.1648    1.2347 N.ar      1 <0>         0.0000
     13 N2          6.3263   -1.8236    6.8446 N.ar      1 <0>         0.0000
     14 N3          5.3558   -1.4155    6.0263 N.ar      1 <0>         0.0000
     15 N4          3.2474   -0.6224    4.2693 N.2       1 <0>         0.0000
     16 N5          3.9439    1.5207    4.4766 N.2       1 <0>         0.0000
     17 O1          2.8361    1.4599    3.6242 O.3       1 <0>         0.0000
     18 O2          0.7803    1.9154    1.9570 O.3       1 <0>         0.0000
     19 H1         -0.3024   -3.1436    1.8986 H         1 <0>         0.0000
     20 H2          7.8072    1.1399    7.5528 H         1 <0>         0.0000
     21 H3          1.6448   -2.3259    3.2856 H         1 <0>         0.0000
     22 H4          5.9554    1.9196    5.9916 H         1 <0>         0.0000
     23 H5         -1.6227   -1.4455    0.6090 H         1 <0>         0.0000
     24 H6          7.9312   -1.3418    8.0234 H         1 <0>         0.0000
     25 H7          0.1047    2.3070    1.3712 H         1 <0>         0.0000
@<TRIPOS>BOND
     1    1    3 ar
     2    1    5 ar
     3    1   19 1
     4    2    4 ar
     5    2    6 ar
     6    2   20 1
     7    3    7 ar
     8    3   21 1
     9    4    8 ar
    10    4   22 1
    11    5   12 ar
    12    5   23 1
    13    6   13 ar
    14    6   24 1
    15    7    9 ar
    16    7   11 1
    17    8   10 1
    18    8   14 ar
    19    9   12 ar
    20    9   18 1
    21   10   15 1
    22   10   16 2
    23   11   15 2
    24   11   17 1
    25   13   14 ar
    26   16   17 1
    27   18   25 1
