@<TRIPOS>MOLECULE
*****
   21    21     0     0     0
SMALL
NO_CHARGES

@<TRIPOS>ATOM
      1 C1          1.3886   -2.9797    0.1142 C.ar      1 <0>         0.0000
      2 C2          0.8113   -1.8824    0.7631 C.ar      1 <0>         0.0000
      3 C3          2.7041   -3.3565    0.3921 C.ar      1 <0>         0.0000
      4 C4          2.8673   -1.5204    1.9880 C.ar      1 <0>         0.0000
      5 C5          1.5445   -1.1452    1.7009 C.ar      1 <0>         0.0000
      6 C6          3.4257   -2.6137    1.3308 C.ar      1 <0>         0.0000
      7 C7          0.7488   -0.2835    3.9055 C.2       1 <0>         0.0000
      8 C8          0.9281    0.0311    2.4359 C.3       1 <0>         0.0000
      9 N1          1.5118    0.1114    4.8648 N.2       1 <0>         0.0000
     10 N2         -0.3736   -1.0499    4.2316 N.pl3     1 <0>         0.0000
     11 O1          2.5635    0.9517    4.3853 O.3       1 <0>         0.0000
     12 Br1         5.2382   -3.1165    1.7201 Br        1 <0>         0.0000
     13 H1          0.8139   -3.5445   -0.6151 H         1 <0>         0.0000
     14 H2         -0.2109   -1.5928    0.5299 H         1 <0>         0.0000
     15 H3          3.1594   -4.2048   -0.1082 H         1 <0>         0.0000
     16 H4          3.4391   -0.9576    2.7197 H         1 <0>         0.0000
     17 H5          1.5643    0.9124    2.3435 H         1 <0>         0.0000
     18 H6         -0.0518    0.2682    2.0124 H         1 <0>         0.0000
     19 H7         -0.5367   -1.8080    3.5745 H         1 <0>         0.0000
     20 H8         -0.3400   -1.3927    5.1880 H         1 <0>         0.0000
     21 H9          2.9992    1.2108    5.2124 H         1 <0>         0.0000
@<TRIPOS>BOND
     1    1    2 ar
     2    1    3 ar
     3    1   13 1
     4    2    5 ar
     5    2   14 1
     6    3    6 ar
     7    3   15 1
     8    4    5 ar
     9    4    6 ar
    10    4   16 1
    11    5    8 1
    12    6   12 1
    13    7    8 1
    14    7    9 2
    15    7   10 1
    16    8   17 1
    17    8   18 1
    18    9   11 1
    19   10   19 1
    20   10   20 1
    21   11   21 1
