@<TRIPOS>MOLECULE
*****
   43    45     0     0     0
SMALL
NO_CHARGES

@<TRIPOS>ATOM
      1 C1         -5.3776   -5.9525   -1.0347 C.ar      1 <0>         0.0000
      2 C2         -6.5005   -5.1196   -0.8497 C.ar      1 <0>         0.0000
      3 C3         -4.1003   -5.5008   -0.7046 C.ar      1 <0>         0.0000
      4 C4         -6.3822   -3.8318   -0.3219 C.ar      1 <0>         0.0000
      5 C5         -3.9749   -4.2066   -0.1921 C.ar      1 <0>         0.0000
      6 C6         -5.0962   -3.3980    0.0137 C.ar      1 <0>         0.0000
      7 C7         -2.7879   -3.4478    0.2359 C.2       1 <0>         0.0000
      8 C8         -1.1135   -1.2914    1.5543 C.2       1 <0>         0.0000
      9 C9         -0.4888    0.6436   -1.4864 C.3       1 <0>         0.0000
     10 C10        -1.1002   -0.6210   -0.8717 C.3       1 <0>         0.0000
     11 C11         0.9820   -1.0771    0.3323 C.3       1 <0>         0.0000
     12 C12         1.6464    0.2048   -0.1922 C.3       1 <0>         0.0000
     13 C13         1.0426    0.5796   -1.5720 C.3       1 <0>         0.0000
     14 C14         1.5704    1.3265    0.8544 C.3       1 <0>         0.0000
     15 C15         1.6112    1.8865   -2.1334 C.3       1 <0>         0.0000
     16 C16        -2.6519   -1.3042    1.5665 C.3       1 <0>         0.0000
     17 N1         -4.7114   -2.1780    0.6079 N.pl3     1 <0>         0.0000
     18 N2         -3.2802   -2.1783    0.5782 N.am      1 <0>         0.0000
     19 N3         -0.4703   -0.9112    0.4140 N.am      1 <0>         0.0000
     20 O1         -1.6114   -3.7874    0.3001 O.2       1 <0>         0.0000
     21 O2         -0.5298   -1.5354    2.6109 O.2       1 <0>         0.0000
     22 O3          1.3113   -0.4880   -2.5103 O.3       1 <0>         0.0000
     23 H1         -5.5151   -6.9514   -1.4384 H         1 <0>         0.0000
     24 H2         -7.4864   -5.4919   -1.1156 H         1 <0>         0.0000
     25 H3         -3.2186   -6.1202   -0.8419 H         1 <0>         0.0000
     26 H4         -7.2559   -3.2047   -0.1667 H         1 <0>         0.0000
     27 H5         -0.8881    0.7830   -2.4967 H         1 <0>         0.0000
     28 H6         -0.7771    1.5163   -0.8916 H         1 <0>         0.0000
     29 H7         -2.1721   -0.4824   -0.7413 H         1 <0>         0.0000
     30 H8         -0.9571   -1.4741   -1.5451 H         1 <0>         0.0000
     31 H9          1.1927   -1.9184   -0.3382 H         1 <0>         0.0000
     32 H10         1.3454   -1.3263    1.3280 H         1 <0>         0.0000
     33 H11         2.7093   -0.0261   -0.3600 H         1 <0>         0.0000
     34 H12         0.5348    1.6093    1.0655 H         1 <0>         0.0000
     35 H13         2.1122    2.2216    0.5372 H         1 <0>         0.0000
     36 H14         2.0096    0.9869    1.7973 H         1 <0>         0.0000
     37 H15         2.7081    1.8588   -2.1518 H         1 <0>         0.0000
     38 H16         1.3090    2.7555   -1.5427 H         1 <0>         0.0000
     39 H17         1.2561    2.0264   -3.1588 H         1 <0>         0.0000
     40 H18        -3.0190   -0.2842    1.3978 H         1 <0>         0.0000
     41 H19        -2.9394   -1.6064    2.5764 H         1 <0>         0.0000
     42 H20        -5.0651   -1.3599    0.1108 H         1 <0>         0.0000
     43 H21         2.2739   -0.6010   -2.5653 H         1 <0>         0.0000
@<TRIPOS>BOND
     1    1    2 ar
     2    1    3 ar
     3    1   23 1
     4    2    4 ar
     5    2   24 1
     6    3    5 ar
     7    3   25 1
     8    4    6 ar
     9    4   26 1
    10    5    6 ar
    11    5    7 1
    12    6   17 1
    13    7   18 am
    14    7   20 2
    15    8   16 1
    16    8   19 am
    17    8   21 2
    18    9   10 1
    19    9   13 1
    20    9   27 1
    21    9   28 1
    22   10   19 1
    23   10   29 1
    24   10   30 1
    25   11   12 1
    26   11   19 1
    27   11   31 1
    28   11   32 1
    29   12   13 1
    30   12   14 1
    31   12   33 1
    32   13   15 1
    33   13   22 1
    34   14   34 1
    35   14   35 1
    36   14   36 1
    37   15   37 1
    38   15   38 1
    39   15   39 1
    40   16   18 1
    41   16   40 1
    42   16   41 1
    43   17   18 1
    44   17   42 1
    45   22   43 1
