@<TRIPOS>MOLECULE
*****
   23    24     0     0     0
SMALL
NO_CHARGES

@<TRIPOS>ATOM
      1 C1         -2.0812    0.3539   -3.7245 C.2       1 <0>         0.0000
      2 C2         -2.1396   -0.6606   -2.7279 C.2       1 <0>         0.0000
      3 C3         -3.3069    0.6173   -4.2915 C.2       1 <0>         0.0000
      4 C4         -3.4138   -1.1634   -2.5434 C.2       1 <0>         0.0000
      5 C5         -4.7148   -4.2468    0.2214 C.2       1 <0>         0.0000
      6 C6         -6.2585   -5.5118    1.1253 C.2       1 <0>         0.0000
      7 C7         -3.8868   -2.1942   -1.6338 C.2       1 <0>         0.0000
      8 N1         -5.8612   -3.9514   -0.3572 N.2       1 <0>         0.0000
      9 N2         -6.8448   -4.7678    0.2295 N.2       1 <0>         0.0000
     10 N3         -3.0359   -2.7715   -0.8458 N.2       1 <0>         0.0000
     11 N4         -4.9009   -5.2348    1.1757 N.pl3     1 <0>         0.0000
     12 N5         -3.8819   -5.7704    1.9694 N.3       1 <0>         0.0000
     13 N6         -3.4583   -3.7425    0.0154 N.pl3     1 <0>         0.0000
     14 S1         -4.5497   -0.3745   -3.6118 S.3       1 <0>         0.0000
     15 S2         -6.9693   -6.7283    2.1833 S.3       1 <0>         0.0000
     16 H1         -1.1715    0.8706   -4.0136 H         1 <0>         0.0000
     17 H2         -1.2897   -1.0200   -2.1587 H         1 <0>         0.0000
     18 H3         -3.5476    1.3344   -5.0659 H         1 <0>         0.0000
     19 H4         -4.9458   -2.4504   -1.6425 H         1 <0>         0.0000
     20 H5         -3.8063   -6.7733    1.8019 H         1 <0>         0.0000
     21 H6         -4.0909   -5.6070    2.9540 H         1 <0>         0.0000
     22 H7         -2.7241   -4.1294    0.5944 H         1 <0>         0.0000
     23 H8         -8.2092   -6.5376    1.6918 H         1 <0>         0.0000
@<TRIPOS>BOND
     1    1    2 1
     2    1    3 2
     3    1   16 1
     4    2    4 2
     5    2   17 1
     6    3   14 1
     7    3   18 1
     8    4    7 1
     9    4   14 1
    10    5    8 2
    11    5   11 1
    12    5   13 1
    13    6    9 2
    14    6   11 1
    15    6   15 1
    16    7   10 2
    17    7   19 1
    18    8    9 1
    19   10   13 1
    20   11   12 1
    21   12   20 1
    22   12   21 1
    23   13   22 1
    24   15   23 1
