@<TRIPOS>MOLECULE
*****
   47    50     0     0     0
SMALL
NO_CHARGES

@<TRIPOS>ATOM
      1 C1          2.0204   -4.3374    3.2628 C.1       1 <0>         0.0000
      2 C2          4.6656   -6.2371    5.0460 C.ar      1 <0>         0.0000
      3 C3          5.8340   -5.7070    4.4824 C.ar      1 <0>         0.0000
      4 C4          3.4283   -5.7777    4.6061 C.ar      1 <0>         0.0000
      5 C5          5.7573   -4.7399    3.4851 C.ar      1 <0>         0.0000
      6 C6          5.4444   -2.3237    1.5601 C.2       1 <0>         0.0000
      7 C7          4.8372   -1.5683    0.5091 C.2       1 <0>         0.0000
      8 C8          3.3408   -4.7894    3.6067 C.ar      1 <0>         0.0000
      9 C9          4.5183   -4.2557    3.0211 C.ar      1 <0>         0.0000
     10 C10         4.5037   -3.2349    1.9857 C.2       1 <0>         0.0000
     11 C11         3.5682   -2.0614    0.3496 C.2       1 <0>         0.0000
     12 C12         0.0987    1.5085    1.0741 C.3       1 <0>         0.0000
     13 C13         0.3836    1.4655   -0.4514 C.3       1 <0>         0.0000
     14 C14        -1.3868   -0.5685    1.2106 C.3       1 <0>         0.0000
     15 C15         1.1661   -0.7607    1.3703 C.3       1 <0>         0.0000
     16 C16        -0.6012   -0.8007   -1.0994 C.3       1 <0>         0.0000
     17 C17        -0.0752    0.0988    1.6633 C.3       1 <0>         0.0000
     18 C18         0.6947    0.0332   -0.9132 C.3       1 <0>         0.0000
     19 C19        -2.9387   -1.0502   -0.5617 C.3       1 <0>         0.0000
     20 C20         2.4077   -1.6866   -0.5173 C.3       1 <0>         0.0000
     21 N1          0.9202   -4.0106    3.0585 N.1       1 <0>         0.0000
     22 N2         -1.6873   -0.3928   -0.2109 N.3       1 <0>         0.0000
     23 N3          1.6884   -0.5308    0.0109 N.3       1 <0>         0.0000
     24 O1          3.3620   -3.0784    1.2435 O.3       1 <0>         0.0000
     25 H1          4.7212   -6.9991    5.8177 H         1 <0>         0.0000
     26 H2          6.8069   -6.0606    4.8129 H         1 <0>         0.0000
     27 H3          2.5106   -6.1681    5.0350 H         1 <0>         0.0000
     28 H4          6.6697   -4.3616    3.0345 H         1 <0>         0.0000
     29 H5          6.4376   -2.1897    1.9678 H         1 <0>         0.0000
     30 H6          5.2716   -0.7489   -0.0480 H         1 <0>         0.0000
     31 H7          0.9333    1.9945    1.5917 H         1 <0>         0.0000
     32 H8         -0.7955    2.1064    1.2774 H         1 <0>         0.0000
     33 H9         -0.4735    1.8459   -1.0129 H         1 <0>         0.0000
     34 H10         1.2476    2.0946   -0.6864 H         1 <0>         0.0000
     35 H11        -1.3546   -1.6384    1.4930 H         1 <0>         0.0000
     36 H12        -2.2186   -0.1193    1.7675 H         1 <0>         0.0000
     37 H13         1.9588   -0.5143    2.0884 H         1 <0>         0.0000
     38 H14         0.9152   -1.8183    1.5344 H         1 <0>         0.0000
     39 H15        -0.9579   -0.6526   -2.1254 H         1 <0>         0.0000
     40 H16        -0.3688   -1.8796   -1.0023 H         1 <0>         0.0000
     41 H17        -0.1447    0.1752    2.7546 H         1 <0>         0.0000
     42 H18         1.1850    0.0793   -1.8924 H         1 <0>         0.0000
     43 H19        -3.1951   -0.8328   -1.6040 H         1 <0>         0.0000
     44 H20        -3.7463   -0.6688    0.0723 H         1 <0>         0.0000
     45 H21        -2.9017   -2.1500   -0.4391 H         1 <0>         0.0000
     46 H22         2.7832   -1.4295   -1.5136 H         1 <0>         0.0000
     47 H23         1.7722   -2.5841   -0.6228 H         1 <0>         0.0000
@<TRIPOS>BOND
     1    1    8 1
     2    1   21 3
     3    2    3 ar
     4    2    4 ar
     5    2   25 1
     6    3    5 ar
     7    3   26 1
     8    4    8 ar
     9    4   27 1
    10    5    9 ar
    11    5   28 1
    12    6    7 1
    13    6   10 2
    14    6   29 1
    15    7   11 2
    16    7   30 1
    17    8    9 ar
    18    9   10 1
    19   10   24 1
    20   11   20 1
    21   11   24 1
    22   12   13 1
    23   12   17 1
    24   12   31 1
    25   12   32 1
    26   13   18 1
    27   13   33 1
    28   13   34 1
    29   14   17 1
    30   14   22 1
    31   14   35 1
    32   14   36 1
    33   15   17 1
    34   15   23 1
    35   15   37 1
    36   15   38 1
    37   16   18 1
    38   16   22 1
    39   16   39 1
    40   16   40 1
    41   17   41 1
    42   18   23 1
    43   18   42 1
    44   19   22 1
    45   19   43 1
    46   19   44 1
    47   19   45 1
    48   20   23 1
    49   20   46 1
    50   20   47 1
