@<TRIPOS>MOLECULE
*****
   25    26     0     0     0
SMALL
NO_CHARGES

@<TRIPOS>ATOM
      1 C1          2.8180   -2.1473   -2.1882 C.ar      1 <0>         0.0000
      2 C2          3.9869   -2.7839   -2.6022 C.ar      1 <0>         0.0000
      3 C3          2.8755   -1.3033   -1.0768 C.ar      1 <0>         0.0000
      4 C4          0.8427   -1.1352    2.0369 C.ar      1 <0>         0.0000
      5 C5          2.9429   -2.1307    2.6242 C.ar      1 <0>         0.0000
      6 C6          5.1669   -2.5398   -1.8849 C.ar      1 <0>         0.0000
      7 C7          0.2167   -2.2749    2.5391 C.ar      1 <0>         0.0000
      8 C8          2.2414   -1.0519    2.0758 C.ar      1 <0>         0.0000
      9 C9          4.1068   -1.1141   -0.4336 C.ar      1 <0>         0.0000
     10 C10         2.2034   -3.2222    3.0890 C.ar      1 <0>         0.0000
     11 C11         4.2448   -0.1930    0.7584 C.2       1 <0>         0.0000
     12 C12         2.9805    0.1596    1.5502 C.3       1 <0>         0.0000
     13 N1          5.2361   -1.7236   -0.8324 N.ar      1 <0>         0.0000
     14 N2          0.8862   -3.3170    3.0588 N.ar      1 <0>         0.0000
     15 O1          5.3277    0.2496    1.0948 O.2       1 <0>         0.0000
     16 Br1         3.1629   -4.7216    3.8275 Br        1 <0>         0.0000
     17 H1          1.8795   -2.3073   -2.7121 H         1 <0>         0.0000
     18 H2          3.9936   -3.4571   -3.4546 H         1 <0>         0.0000
     19 H3          1.9780   -0.8059   -0.7266 H         1 <0>         0.0000
     20 H4          0.2462   -0.3258    1.6238 H         1 <0>         0.0000
     21 H5          4.0263   -2.1323    2.6832 H         1 <0>         0.0000
     22 H6          6.0966   -3.0275   -2.1746 H         1 <0>         0.0000
     23 H7         -0.8676   -2.3660    2.5242 H         1 <0>         0.0000
     24 H8          2.3113    0.7634    0.9272 H         1 <0>         0.0000
     25 H9          3.3085    0.7925    2.3793 H         1 <0>         0.0000
@<TRIPOS>BOND
     1    1    2 ar
     2    1    3 ar
     3    1   17 1
     4    2    6 ar
     5    2   18 1
     6    3    9 ar
     7    3   19 1
     8    4    7 ar
     9    4    8 ar
    10    4   20 1
    11    5    8 ar
    12    5   10 ar
    13    5   21 1
    14    6   13 ar
    15    6   22 1
    16    7   14 ar
    17    7   23 1
    18    8   12 1
    19    9   11 1
    20    9   13 ar
    21   10   14 ar
    22   10   16 1
    23   11   12 1
    24   11   15 2
    25   12   24 1
    26   12   25 1
