@<TRIPOS>MOLECULE
*****
   21    21     0     0     0
SMALL
NO_CHARGES

@<TRIPOS>ATOM
      1 C1          2.1341   -0.8074    0.0178 C.ar      1 <0>         0.0000
      2 C2          1.0180   -0.2730    0.6631 C.ar      1 <0>         0.0000
      3 C3          3.0264   -1.6421    0.7023 C.ar      1 <0>         0.0000
      4 C4          1.6565   -1.3999    2.7073 C.ar      1 <0>         0.0000
      5 C5          0.7689   -0.5678    2.0135 C.ar      1 <0>         0.0000
      6 C6          2.7629   -1.9181    2.0379 C.ar      1 <0>         0.0000
      7 C7         -0.2700    1.5393    2.8542 C.2       1 <0>         0.0000
      8 C8         -0.4326    0.0412    2.7120 C.3       1 <0>         0.0000
      9 N1         -0.8825    2.4409    2.1680 N.2       1 <0>         0.0000
     10 N2          0.6084    1.9612    3.8556 N.pl3     1 <0>         0.0000
     11 O1         -1.8082    1.8621    1.2457 O.3       1 <0>         0.0000
     12 F1          3.6147   -2.7259    2.7237 F         1 <0>         0.0000
     13 H1          2.3169   -0.5765   -1.0282 H         1 <0>         0.0000
     14 H2          0.3323    0.3788    0.1285 H         1 <0>         0.0000
     15 H3          3.9003   -2.0704    0.2214 H         1 <0>         0.0000
     16 H4          1.4958   -1.6576    3.7508 H         1 <0>         0.0000
     17 H5         -1.3423   -0.1589    2.1451 H         1 <0>         0.0000
     18 H6         -0.5485   -0.3869    3.7118 H         1 <0>         0.0000
     19 H7          1.4536    1.3988    3.9026 H         1 <0>         0.0000
     20 H8          0.8263    2.9514    3.7855 H         1 <0>         0.0000
     21 H9         -2.2333    2.6517    0.8760 H         1 <0>         0.0000
@<TRIPOS>BOND
     1    1    2 ar
     2    1    3 ar
     3    1   13 1
     4    2    5 ar
     5    2   14 1
     6    3    6 ar
     7    3   15 1
     8    4    5 ar
     9    4    6 ar
    10    4   16 1
    11    5    8 1
    12    6   12 1
    13    7    8 1
    14    7    9 2
    15    7   10 1
    16    8   17 1
    17    8   18 1
    18    9   11 1
    19   10   19 1
    20   10   20 1
    21   11   21 1
