@<TRIPOS>MOLECULE
*****
   34    36     0     0     0
SMALL
NO_CHARGES

@<TRIPOS>ATOM
      1 C1         -0.5390   -2.1609    0.2835 C.ar      1 <0>         0.0000
      2 C2          0.3699   -1.0766    0.2010 C.ar      1 <0>         0.0000
      3 C3          3.0736   -5.2840   -0.6690 C.ar      1 <0>         0.0000
      4 C4         -0.0847   -3.4459    0.0886 C.ar      1 <0>         0.0000
      5 C5          1.7038   -1.2971   -0.0726 C.ar      1 <0>         0.0000
      6 C6          1.7439   -5.0350   -0.3941 C.ar      1 <0>         0.0000
      7 C7          3.9918   -4.2198   -0.7557 C.ar      1 <0>         0.0000
      8 C8          1.2854   -3.7067   -0.1952 C.ar      1 <0>         0.0000
      9 C9          2.2127   -2.6121   -0.2807 C.ar      1 <0>         0.0000
     10 C10         3.5931   -2.8994   -0.5690 C.ar      1 <0>         0.0000
     11 C11        10.6000   -1.2160   -1.7543 C.ar      1 <0>         0.0000
     12 C12         9.8205   -2.4010   -1.7019 C.ar      1 <0>         0.0000
     13 C13         8.0089   -1.1645   -1.2620 C.ar      1 <0>         0.0000
     14 C14         4.5857   -1.8250   -0.6698 C.2       1 <0>         0.0000
     15 C15        12.0746   -1.2331   -2.0336 C.3       1 <0>         0.0000
     16 N1          9.9911   -0.0505   -1.5467 N.ar      1 <0>         0.0000
     17 N2          8.5258   -2.3919   -1.4572 N.ar      1 <0>         0.0000
     18 N3          8.6825   -0.0010   -1.2961 N.ar      1 <0>         0.0000
     19 N4          5.8245   -2.0808   -0.9234 N.2       1 <0>         0.0000
     20 N5          6.6669   -1.0270   -0.9983 N.pl3     1 <0>         0.0000
     21 O1         10.4268   -3.5876   -1.9106 O.3       1 <0>         0.0000
     22 H1         -1.5875   -1.9741    0.4996 H         1 <0>         0.0000
     23 H2          0.0121   -0.0619    0.3550 H         1 <0>         0.0000
     24 H3          3.4196   -6.3031   -0.8205 H         1 <0>         0.0000
     25 H4         -0.7711   -4.2873    0.1492 H         1 <0>         0.0000
     26 H5          2.3639   -0.4386   -0.1261 H         1 <0>         0.0000
     27 H6          1.0305   -5.8529   -0.3262 H         1 <0>         0.0000
     28 H7          5.0366   -4.4175   -0.9724 H         1 <0>         0.0000
     29 H8          4.2576   -0.7910   -0.5259 H         1 <0>         0.0000
     30 H9         12.2862   -1.6850   -3.0086 H         1 <0>         0.0000
     31 H10        12.4530   -0.2093   -2.0229 H         1 <0>         0.0000
     32 H11        12.6114   -1.8232   -1.2830 H         1 <0>         0.0000
     33 H12         6.3439   -0.0686   -0.8613 H         1 <0>         0.0000
     34 H13         9.7331   -4.2711   -1.8343 H         1 <0>         0.0000
@<TRIPOS>BOND
     1    1    2 ar
     2    1    4 ar
     3    1   22 1
     4    2    5 ar
     5    2   23 1
     6    3    6 ar
     7    3    7 ar
     8    3   24 1
     9    4    8 ar
    10    4   25 1
    11    5    9 ar
    12    5   26 1
    13    6    8 ar
    14    6   27 1
    15    7   10 ar
    16    7   28 1
    17    8    9 ar
    18    9   10 ar
    19   10   14 1
    20   11   12 ar
    21   11   15 1
    22   11   16 ar
    23   12   17 ar
    24   12   21 1
    25   13   17 ar
    26   13   18 ar
    27   13   20 1
    28   14   19 2
    29   14   29 1
    30   15   30 1
    31   15   31 1
    32   15   32 1
    33   16   18 ar
    34   19   20 1
    35   20   33 1
    36   21   34 1
