@<TRIPOS>MOLECULE
*****
   25    26     0     0     0
SMALL
NO_CHARGES

@<TRIPOS>ATOM
      1 C1          1.1477    0.4255    1.9122 C.3       1 <0>         0.0000
      2 C2         -1.2737   -1.5220   -1.8164 C.3       1 <0>         0.0000
      3 C3          1.2176   -0.5846    0.7581 C.3       1 <0>         0.0000
      4 C4          0.2081   -1.2565   -1.5104 C.3       1 <0>         0.0000
      5 C5          1.1933    1.8683    1.3822 C.3       1 <0>         0.0000
      6 C6          0.2926    1.1900   -0.7602 C.3       1 <0>         0.0000
      7 C7         -1.8833   -1.4594   -0.4159 C.3       1 <0>         0.0000
      8 C8          0.1667   -0.2809   -0.3174 C.3       1 <0>         0.0000
      9 N1          0.1958    2.1506    0.3395 N.3       1 <0>         0.0000
     10 O1         -1.1593   -0.4332    0.2716 O.3       1 <0>         0.0000
     11 H1          0.2123    0.2711    2.4622 H         1 <0>         0.0000
     12 H2          1.9713    0.2557    2.6170 H         1 <0>         0.0000
     13 H3         -1.6882   -0.7282   -2.4462 H         1 <0>         0.0000
     14 H4         -1.4467   -2.4802   -2.3146 H         1 <0>         0.0000
     15 H5          2.2118   -0.5514    0.2908 H         1 <0>         0.0000
     16 H6          1.0694   -1.6062    1.1273 H         1 <0>         0.0000
     17 H7          0.7081   -2.1877   -1.2197 H         1 <0>         0.0000
     18 H8          0.7541   -0.8387   -2.3614 H         1 <0>         0.0000
     19 H9          1.0493    2.5837    2.1992 H         1 <0>         0.0000
     20 H10         2.1841    2.0722    0.9530 H         1 <0>         0.0000
     21 H11         1.2632    1.3318   -1.2544 H         1 <0>         0.0000
     22 H12        -0.4875    1.4166   -1.4952 H         1 <0>         0.0000
     23 H13        -2.9437   -1.1903   -0.4042 H         1 <0>         0.0000
     24 H14        -1.7628   -2.4211    0.1063 H         1 <0>         0.0000
     25 H15        -0.7350    2.0584    0.7463 H         1 <0>         0.0000
@<TRIPOS>BOND
     1    1    3 1
     2    1    5 1
     3    1   11 1
     4    1   12 1
     5    2    4 1
     6    2    7 1
     7    2   13 1
     8    2   14 1
     9    3    8 1
    10    3   15 1
    11    3   16 1
    12    4    8 1
    13    4   17 1
    14    4   18 1
    15    5    9 1
    16    5   19 1
    17    5   20 1
    18    6    8 1
    19    6    9 1
    20    6   21 1
    21    6   22 1
    22    7   10 1
    23    7   23 1
    24    7   24 1
    25    8   10 1
    26    9   25 1
