@<TRIPOS>MOLECULE
*****
   30    31     0     0     0
SMALL
NO_CHARGES

@<TRIPOS>ATOM
      1 C1          5.3851   -3.2431    3.7420 C.ar      1 <0>         0.0000
      2 C2          4.8636   -2.8238    4.9697 C.ar      1 <0>         0.0000
      3 C3          4.7872   -2.7986    2.5567 C.ar      1 <0>         0.0000
      4 C4          3.7561   -1.9733    5.0197 C.ar      1 <0>         0.0000
      5 C5          3.6952   -1.9306    2.5984 C.ar      1 <0>         0.0000
      6 C6          1.9427    1.6803    6.6911 C.ar      1 <0>         0.0000
      7 C7         -0.1827    0.6746    6.2459 C.ar      1 <0>         0.0000
      8 C8          0.5872    1.5290    7.0440 C.ar      1 <0>         0.0000
      9 C9          2.4851    0.9844    5.6190 C.ar      1 <0>         0.0000
     10 C10         3.1704   -1.5111    3.8313 C.ar      1 <0>         0.0000
     11 C11         1.6149    0.0908    4.9335 C.ar      1 <0>         0.0000
     12 C12        -0.0387    2.2381    8.1575 C.2       1 <0>         0.0000
     13 C13         3.9021    1.2352    5.1681 C.3       1 <0>         0.0000
     14 N1          0.3120   -0.0343    5.2275 N.ar      1 <0>         0.0000
     15 N2          0.6355    3.0223    8.9200 N.2       1 <0>         0.0000
     16 N3          2.0416   -0.6483    3.8259 N.pl3     1 <0>         0.0000
     17 O1         -0.1933    3.5855    9.9110 O.3       1 <0>         0.0000
     18 H1          6.2423   -3.9097    3.7082 H         1 <0>         0.0000
     19 H2          5.3092   -3.1726    5.8979 H         1 <0>         0.0000
     20 H3          5.1813   -3.1170    1.5950 H         1 <0>         0.0000
     21 H4          3.3346   -1.6823    5.9773 H         1 <0>         0.0000
     22 H5          3.2477   -1.5616    1.6789 H         1 <0>         0.0000
     23 H6          2.5583    2.3805    7.2494 H         1 <0>         0.0000
     24 H7         -1.2477    0.5505    6.4415 H         1 <0>         0.0000
     25 H8         -1.1080    2.0850    8.3322 H         1 <0>         0.0000
     26 H9          4.5941    0.4663    5.5265 H         1 <0>         0.0000
     27 H10         3.9684    1.2352    4.0762 H         1 <0>         0.0000
     28 H11         4.2508    2.2031    5.5381 H         1 <0>         0.0000
     29 H12         1.2435   -1.0280    3.3251 H         1 <0>         0.0000
     30 H13         0.4226    4.1435   10.4132 H         1 <0>         0.0000
@<TRIPOS>BOND
     1    1    3 ar
     2    1    2 ar
     3    1   18 1
     4    2    4 ar
     5    2   19 1
     6    3    5 ar
     7    3   20 1
     8    4   10 ar
     9    4   21 1
    10    5   10 ar
    11    5   22 1
    12    6    8 ar
    13    6    9 ar
    14    6   23 1
    15    7    8 ar
    16    7   14 ar
    17    7   24 1
    18    8   12 1
    19    9   11 ar
    20    9   13 1
    21   10   16 1
    22   11   14 ar
    23   11   16 1
    24   12   15 2
    25   12   25 1
    26   13   26 1
    27   13   27 1
    28   13   28 1
    29   15   17 1
    30   16   29 1
    31   17   30 1
