@<TRIPOS>MOLECULE
*****
   22    23     0     0     0
SMALL
NO_CHARGES

@<TRIPOS>ATOM
      1 C1         -1.4500   -0.7445    1.2921 C.ar      1 <0>         0.0000
      2 C2         -0.5736    0.2770    0.9392 C.ar      1 <0>         0.0000
      3 C3         -1.6573    1.8383    2.4956 C.ar      1 <0>         0.0000
      4 C4         -4.1138   -0.5761    3.7453 C.2       1 <0>         0.0000
      5 C5         -2.5565    0.8184    2.8579 C.ar      1 <0>         0.0000
      6 C6         -3.6452    0.7248    3.8085 C.2       1 <0>         0.0000
      7 C7         -2.4272   -0.4624    2.2527 C.ar      1 <0>         0.0000
      8 C8         -0.6879    1.5442    1.5475 C.ar      1 <0>         0.0000
      9 C9         -4.1793    1.7179    4.7480 C.2       1 <0>         0.0000
     10 N1         -4.3433    2.9886    4.5732 N.2       1 <0>         0.0000
     11 N2         -3.3956   -1.2852    2.8102 N.pl3     1 <0>         0.0000
     12 N3         -4.6421    1.1943    5.9714 N.pl3     1 <0>         0.0000
     13 O1         -4.0727    3.3836    3.2353 O.3       1 <0>         0.0000
     14 Cl1         0.4507    2.8027    1.0678 Cl        1 <0>         0.0000
     15 H1         -1.3661   -1.7265    0.8339 H         1 <0>         0.0000
     16 H2          0.2007    0.1055    0.1989 H         1 <0>         0.0000
     17 H3         -1.7359    2.8269    2.9293 H         1 <0>         0.0000
     18 H4         -4.9285   -1.0286    4.2938 H         1 <0>         0.0000
     19 H5         -3.5630   -2.2483    2.5560 H         1 <0>         0.0000
     20 H6         -4.9761    1.9366    6.5819 H         1 <0>         0.0000
     21 H7         -3.9462    0.6201    6.4396 H         1 <0>         0.0000
     22 H8         -4.2738    4.3322    3.2654 H         1 <0>         0.0000
@<TRIPOS>BOND
     1    1    2 ar
     2    1    7 ar
     3    1   15 1
     4    2    8 ar
     5    2   16 1
     6    3    5 ar
     7    3    8 ar
     8    3   17 1
     9    4    6 2
    10    4   11 1
    11    4   18 1
    12    5    6 1
    13    5    7 ar
    14    6    9 1
    15    7   11 1
    16    8   14 1
    17    9   10 2
    18    9   12 1
    19   10   13 1
    20   11   19 1
    21   12   20 1
    22   12   21 1
    23   13   22 1
