@<TRIPOS>MOLECULE
*****
   38    40     0     0     0
SMALL
NO_CHARGES

@<TRIPOS>ATOM
      1 C1         -8.5915    4.2031    0.3699 C.ar      1 <0>         0.0000
      2 C2         -9.1762    4.4454    1.6172 C.ar      1 <0>         0.0000
      3 C3         -7.2394    3.8680    0.2941 C.ar      1 <0>         0.0000
      4 C4         -8.4117    4.3666    2.7834 C.ar      1 <0>         0.0000
      5 C5         -3.1180    2.4151    1.4104 C.2       1 <0>         0.0000
      6 C6         -6.4672    3.7800    1.4553 C.ar      1 <0>         0.0000
      7 C7         -7.0553    4.0433    2.7007 C.ar      1 <0>         0.0000
      8 C8         -3.0148    3.7441    0.8913 C.2       1 <0>         0.0000
      9 C9         -4.4755    2.2741    1.6849 C.2       1 <0>         0.0000
     10 C10        -2.0120    1.4848    1.5778 C.2       1 <0>         0.0000
     11 C11         0.2311   -0.1172    2.0609 C.3       1 <0>         0.0000
     12 C12        -1.3659   -1.5030    3.2894 C.3       1 <0>         0.0000
     13 C13         1.1877   -1.3103    2.0955 C.3       1 <0>         0.0000
     14 C14        -0.3567   -2.6417    3.2354 C.3       1 <0>         0.0000
     15 C15        -1.7788    4.4512    0.4246 C.3       1 <0>         0.0000
     16 N1         -4.1969    4.3569    0.8527 N.2       1 <0>         0.0000
     17 N2         -2.1856    0.3070    2.0757 N.2       1 <0>         0.0000
     18 N3         -5.0902    3.4461    1.3474 N.pl3     1 <0>         0.0000
     19 N4         -1.1504   -0.5861    2.1649 N.pl3     1 <0>         0.0000
     20 O1          0.9808   -2.1414    3.2304 O.3       1 <0>         0.0000
     21 Cl1        -6.0959    3.9927    4.1595 Cl        1 <0>         0.0000
     22 Cl2        -5.3698    0.9406    2.2900 Cl        1 <0>         0.0000
     23 H1         -9.1855    4.2697   -0.5368 H         1 <0>         0.0000
     24 H2        -10.2298    4.7014    1.6874 H         1 <0>         0.0000
     25 H3         -6.7595    3.6710   -0.6596 H         1 <0>         0.0000
     26 H4         -8.8549    4.5648    3.7540 H         1 <0>         0.0000
     27 H5         -1.0412    1.8568    1.2423 H         1 <0>         0.0000
     28 H6          0.4648    0.5945    2.8720 H         1 <0>         0.0000
     29 H7          0.3751    0.3965    1.1049 H         1 <0>         0.0000
     30 H8         -2.3874   -1.8841    3.2168 H         1 <0>         0.0000
     31 H9         -1.2652   -0.9682    4.2476 H         1 <0>         0.0000
     32 H10         1.0635   -1.8998    1.1739 H         1 <0>         0.0000
     33 H11         2.2209   -0.9577    2.1487 H         1 <0>         0.0000
     34 H12        -0.4492   -3.2763    4.1201 H         1 <0>         0.0000
     35 H13        -0.5275   -3.2552    2.3374 H         1 <0>         0.0000
     36 H14        -1.3029    3.9191   -0.4069 H         1 <0>         0.0000
     37 H15        -2.0383    5.4570    0.0872 H         1 <0>         0.0000
     38 H16        -1.0402    4.5364    1.2294 H         1 <0>         0.0000
@<TRIPOS>BOND
     1    1    2 ar
     2    1    3 ar
     3    1   23 1
     4    2    4 ar
     5    2   24 1
     6    3    6 ar
     7    3   25 1
     8    4    7 ar
     9    4   26 1
    10    5    8 1
    11    5    9 2
    12    5   10 1
    13    6    7 ar
    14    6   18 1
    15    7   21 1
    16    8   15 1
    17    8   16 2
    18    9   18 1
    19    9   22 1
    20   10   17 2
    21   10   27 1
    22   11   13 1
    23   11   19 1
    24   11   28 1
    25   11   29 1
    26   12   14 1
    27   12   19 1
    28   12   30 1
    29   12   31 1
    30   13   20 1
    31   13   32 1
    32   13   33 1
    33   14   20 1
    34   14   34 1
    35   14   35 1
    36   15   36 1
    37   15   37 1
    38   15   38 1
    39   16   18 1
    40   17   19 1
