@<TRIPOS>MOLECULE
*****
   25    26     0     0     0
SMALL
NO_CHARGES

@<TRIPOS>ATOM
      1 C1          1.6752   -3.5480    2.5943 C.ar      1 <0>         0.0000
      2 C2          0.5039   -2.7841    2.6061 C.ar      1 <0>         0.0000
      3 C3          2.9026   -2.9386    2.3298 C.ar      1 <0>         0.0000
      4 C4          0.5596   -1.4108    2.3549 C.ar      1 <0>         0.0000
      5 C5          5.2410   -2.7594    5.4815 C.2       1 <0>         0.0000
      6 C6          6.3347   -2.3740    3.5877 C.2       1 <0>         0.0000
      7 C7          6.3005   -3.2466    4.6631 C.2       1 <0>         0.0000
      8 C8          2.9693   -1.5663    2.0750 C.ar      1 <0>         0.0000
      9 C9          1.7907   -0.8066    2.0924 C.ar      1 <0>         0.0000
     10 C10         4.8859   -0.4330    2.8949 C.3       1 <0>         0.0000
     11 N1          4.6630   -1.6812    4.9514 N.2       1 <0>         0.0000
     12 N2          5.3493   -1.4396    3.8112 N.pl3     1 <0>         0.0000
     13 N3          7.1731   -4.3145    4.9585 N.pl3     1 <0>         0.0000
     14 O1          4.1844   -0.9821    1.7722 O.3       1 <0>         0.0000
     15 Cl1         1.8620    0.9178    1.7833 Cl        1 <0>         0.0000
     16 H1          1.6341   -4.6152    2.7938 H         1 <0>         0.0000
     17 H2         -0.4553   -3.2514    2.8103 H         1 <0>         0.0000
     18 H3          3.8280   -3.5068    2.3244 H         1 <0>         0.0000
     19 H4         -0.3421   -0.8064    2.3600 H         1 <0>         0.0000
     20 H5          4.8923   -3.1497    6.4305 H         1 <0>         0.0000
     21 H6          6.9657   -2.3366    2.7099 H         1 <0>         0.0000
     22 H7          4.2525    0.2506    3.4633 H         1 <0>         0.0000
     23 H8          5.7341    0.0954    2.4574 H         1 <0>         0.0000
     24 H9          7.6151   -4.6975    4.1293 H         1 <0>         0.0000
     25 H10         6.7054   -5.0622    5.4609 H         1 <0>         0.0000
@<TRIPOS>BOND
     1    1    2 ar
     2    1    3 ar
     3    1   16 1
     4    2    4 ar
     5    2   17 1
     6    3    8 ar
     7    3   18 1
     8    4    9 ar
     9    4   19 1
    10    5    7 1
    11    5   11 2
    12    5   20 1
    13    6    7 2
    14    6   12 1
    15    6   21 1
    16    7   13 1
    17    8    9 ar
    18    8   14 1
    19    9   15 1
    20   10   12 1
    21   10   14 1
    22   10   22 1
    23   10   23 1
    24   11   12 1
    25   13   24 1
    26   13   25 1
