@<TRIPOS>MOLECULE
*****
   21    21     0     0     0
SMALL
NO_CHARGES

@<TRIPOS>ATOM
      1 C1          2.2795   -1.3272   -0.1281 C.ar      1 <0>         0.0000
      2 C2          1.1410   -0.6505    0.3240 C.ar      1 <0>         0.0000
      3 C3          3.1279   -1.9704    0.7753 C.ar      1 <0>         0.0000
      4 C4          1.6853   -1.2513    2.6049 C.ar      1 <0>         0.0000
      5 C5          0.8349   -0.6092    1.6897 C.ar      1 <0>         0.0000
      6 C6          2.8125   -1.9210    2.1361 C.ar      1 <0>         0.0000
      7 C7          0.0282    1.3436    3.0226 C.2       1 <0>         0.0000
      8 C8         -0.3819    0.1396    2.2024 C.3       1 <0>         0.0000
      9 N1          0.0402    1.4178    4.3082 N.2       1 <0>         0.0000
     10 N2          0.3945    2.4795    2.2953 N.pl3     1 <0>         0.0000
     11 O1         -0.4384    0.2113    4.9062 O.3       1 <0>         0.0000
     12 Br1         3.9673   -2.8050    3.3911 Br        1 <0>         0.0000
     13 H1          2.5080   -1.3577   -1.1902 H         1 <0>         0.0000
     14 H2          0.4829   -0.1618   -0.3909 H         1 <0>         0.0000
     15 H3          4.0116   -2.4985    0.4324 H         1 <0>         0.0000
     16 H4          1.4574   -1.2176    3.6660 H         1 <0>         0.0000
     17 H5         -0.9915    0.4861    1.3633 H         1 <0>         0.0000
     18 H6         -0.9948   -0.5133    2.8252 H         1 <0>         0.0000
     19 H7          0.9630    2.2602    1.4819 H         1 <0>         0.0000
     20 H8          0.8414    3.1819    2.8785 H         1 <0>         0.0000
     21 H9         -0.4296    0.4432    5.8481 H         1 <0>         0.0000
@<TRIPOS>BOND
     1    1    2 ar
     2    1    3 ar
     3    1   13 1
     4    2    5 ar
     5    2   14 1
     6    3    6 ar
     7    3   15 1
     8    4    5 ar
     9    4    6 ar
    10    4   16 1
    11    5    8 1
    12    6   12 1
    13    7    8 1
    14    7    9 2
    15    7   10 1
    16    8   17 1
    17    8   18 1
    18    9   11 1
    19   10   19 1
    20   10   20 1
    21   11   21 1
