@<TRIPOS>MOLECULE
*****
   38    40     0     0     0
SMALL
NO_CHARGES

@<TRIPOS>ATOM
      1 C1         -3.4499    1.8726   -9.9974 C.ar      1 <0>         0.0000
      2 C2         -4.2599    3.0116   -9.9429 C.ar      1 <0>         0.0000
      3 C3         -2.6591    1.5343   -8.8992 C.ar      1 <0>         0.0000
      4 C4         -4.2700    3.8176   -8.8023 C.ar      1 <0>         0.0000
      5 C5         -1.0694    1.2513   -4.6889 C.2       1 <0>         0.0000
      6 C6         -2.6671    2.3299   -7.7503 C.ar      1 <0>         0.0000
      7 C7         -3.4659    3.4818   -7.7105 C.ar      1 <0>         0.0000
      8 C8         -0.0181    1.6790   -5.5601 C.2       1 <0>         0.0000
      9 C9         -2.2223    1.4526   -5.4427 C.2       1 <0>         0.0000
     10 C10        -0.8922    0.7219   -3.3457 C.2       1 <0>         0.0000
     11 C11        -0.4811   -0.6387   -0.8645 C.3       1 <0>         0.0000
     12 C12        -2.8879   -0.8598   -0.8979 C.3       1 <0>         0.0000
     13 C13        -0.3629   -2.0834   -1.3607 C.3       1 <0>         0.0000
     14 C14        -2.7187   -2.3028   -1.3774 C.3       1 <0>         0.0000
     15 C15         1.4541    1.6927   -5.2805 C.3       1 <0>         0.0000
     16 N1         -0.4850    2.1028   -6.7335 N.2       1 <0>         0.0000
     17 N2         -1.8985    0.3813   -2.6138 N.2       1 <0>         0.0000
     18 N3         -1.8436    1.9652   -6.6514 N.pl3     1 <0>         0.0000
     19 N4         -1.7457   -0.0357   -1.3173 N.pl3     1 <0>         0.0000
     20 O1         -1.4802   -2.8560   -0.9178 O.3       1 <0>         0.0000
     21 Cl1        -3.4471    4.5234   -6.3086 Cl        1 <0>         0.0000
     22 Cl2        -3.8697    1.1250   -5.0891 Cl        1 <0>         0.0000
     23 H1         -3.4382    1.2496  -10.8868 H         1 <0>         0.0000
     24 H2         -4.8841    3.2805  -10.7906 H         1 <0>         0.0000
     25 H3         -2.0232    0.6544   -8.9114 H         1 <0>         0.0000
     26 H4         -4.8858    4.7099   -8.7568 H         1 <0>         0.0000
     27 H5          0.1459    0.6509   -3.0104 H         1 <0>         0.0000
     28 H6         -0.5018   -0.6344    0.2299 H         1 <0>         0.0000
     29 H7          0.3719   -0.0296   -1.1709 H         1 <0>         0.0000
     30 H8         -3.7954   -0.4143   -1.3100 H         1 <0>         0.0000
     31 H9         -2.9409   -0.8362    0.1960 H         1 <0>         0.0000
     32 H10        -0.3021   -2.1071   -2.4590 H         1 <0>         0.0000
     33 H11         0.5280   -2.5678   -0.9511 H         1 <0>         0.0000
     34 H12        -3.5069   -2.9481   -0.9796 H         1 <0>         0.0000
     35 H13        -2.7571   -2.3318   -2.4769 H         1 <0>         0.0000
     36 H14         1.8300    0.6868   -5.0618 H         1 <0>         0.0000
     37 H15         1.9880    2.0784   -6.1517 H         1 <0>         0.0000
     38 H16         1.6908    2.3291   -4.4206 H         1 <0>         0.0000
@<TRIPOS>BOND
     1    1    2 ar
     2    1    3 ar
     3    1   23 1
     4    2    4 ar
     5    2   24 1
     6    3    6 ar
     7    3   25 1
     8    4    7 ar
     9    4   26 1
    10    5    8 1
    11    5    9 2
    12    5   10 1
    13    6    7 ar
    14    6   18 1
    15    7   21 1
    16    8   15 1
    17    8   16 2
    18    9   18 1
    19    9   22 1
    20   10   17 2
    21   10   27 1
    22   11   13 1
    23   11   19 1
    24   11   28 1
    25   11   29 1
    26   12   14 1
    27   12   19 1
    28   12   30 1
    29   12   31 1
    30   13   20 1
    31   13   32 1
    32   13   33 1
    33   14   20 1
    34   14   34 1
    35   14   35 1
    36   15   36 1
    37   15   37 1
    38   15   38 1
    39   16   18 1
    40   17   19 1
