@<TRIPOS>MOLECULE
*****
   48    51     0     0     0
SMALL
NO_CHARGES

@<TRIPOS>ATOM
      1 C1          4.9469   -1.0175   -1.5493 C.ar      1 <0>         0.0000
      2 C2          4.6396   -3.1983   -0.5752 C.ar      1 <0>         0.0000
      3 C3          3.0566   -1.7884    1.5574 C.ar      1 <0>         0.0000
      4 C4          2.1798   -0.5005   -0.2826 C.ar      1 <0>         0.0000
      5 C5          5.9481   -1.5276   -2.3768 C.ar      1 <0>         0.0000
      6 C6          5.6315   -3.7241   -1.4009 C.ar      1 <0>         0.0000
      7 C7          1.9549   -1.4481    2.3376 C.ar      1 <0>         0.0000
      8 C8          1.0597   -0.1679    0.4814 C.ar      1 <0>         0.0000
      9 C9          8.2108   -5.9944   -0.3825 C.ar      1 <0>         0.0000
     10 C10         6.6895   -7.2628   -1.7888 C.ar      1 <0>         0.0000
     11 C11         0.0687   -3.5364    0.2856 C.ar      1 <0>         0.0000
     12 C12         0.1416   -4.5833    2.4751 C.ar      1 <0>         0.0000
     13 C13         7.6467   -6.5753    0.7557 C.ar      1 <0>         0.0000
     14 C14         6.1180   -7.8389   -0.6523 C.ar      1 <0>         0.0000
     15 C15         1.0804   -4.3894   -0.1602 C.ar      1 <0>         0.0000
     16 C16         1.1531   -5.4392    2.0336 C.ar      1 <0>         0.0000
     17 C17         4.2749   -1.8441   -0.6328 C.ar      1 <0>         0.0000
     18 C18         3.1758   -1.3490    0.2266 C.ar      1 <0>         0.0000
     19 C19         6.2850   -2.8821   -2.2994 C.ar      1 <0>         0.0000
     20 C20         0.9391   -0.6741    1.7748 C.ar      1 <0>         0.0000
     21 C21         7.7236   -6.3355   -1.6446 C.ar      1 <0>         0.0000
     22 C22        -0.3835   -3.6304    1.6012 C.ar      1 <0>         0.0000
     23 C23         6.5983   -7.4869    0.6118 C.ar      1 <0>         0.0000
     24 C24         1.6171   -5.3306    0.7206 C.ar      1 <0>         0.0000
     25 O1          7.3328   -3.2911   -3.1378 O.3       1 <0>         0.0000
     26 O2         -0.2703   -0.4001    2.4344 O.3       1 <0>         0.0000
     27 O3          8.3203   -5.7255   -2.7505 O.3       1 <0>         0.0000
     28 O4         -1.3934   -2.7457    2.0116 O.3       1 <0>         0.0000
     29 S1          7.3399   -4.8336   -3.7973 S.3       1 <0>         0.0000
     30 S2         -0.9907   -1.6805    3.2578 S.3       1 <0>         0.0000
     31 Cl1         5.8685   -8.1981    2.0401 Cl        1 <0>         0.0000
     32 Cl2         2.9101   -6.3924    0.1755 Cl        1 <0>         0.0000
     33 H1          4.6994    0.0392   -1.6056 H         1 <0>         0.0000
     34 H2          4.1243   -3.8667    0.1053 H         1 <0>         0.0000
     35 H3          3.8349   -2.4131    1.9860 H         1 <0>         0.0000
     36 H4          2.2430   -0.1532   -1.3103 H         1 <0>         0.0000
     37 H5          6.4772   -0.8906   -3.0793 H         1 <0>         0.0000
     38 H6          5.8664   -4.7782   -1.3443 H         1 <0>         0.0000
     39 H7          1.8587   -1.8254    3.3500 H         1 <0>         0.0000
     40 H8          0.2532    0.4326    0.0715 H         1 <0>         0.0000
     41 H9          9.0090   -5.2634   -0.3010 H         1 <0>         0.0000
     42 H10         6.3193   -7.5167   -2.7773 H         1 <0>         0.0000
     43 H11        -0.3466   -2.7777   -0.3688 H         1 <0>         0.0000
     44 H12        -0.2262   -4.6476    3.4947 H         1 <0>         0.0000
     45 H13         8.0078   -6.3106    1.7442 H         1 <0>         0.0000
     46 H14         5.3078   -8.5548   -0.7475 H         1 <0>         0.0000
     47 H15         1.4602   -4.3085   -1.1734 H         1 <0>         0.0000
     48 H16         1.5766   -6.1828    2.7012 H         1 <0>         0.0000
@<TRIPOS>BOND
     1    1    5 ar
     2    1   17 ar
     3    1   33 1
     4    2    6 ar
     5    2   17 ar
     6    2   34 1
     7    3    7 ar
     8    3   18 ar
     9    3   35 1
    10    4    8 ar
    11    4   18 ar
    12    4   36 1
    13    5   19 ar
    14    5   37 1
    15    6   19 ar
    16    6   38 1
    17    7   20 ar
    18    7   39 1
    19    8   20 ar
    20    8   40 1
    21    9   13 ar
    22    9   21 ar
    23    9   41 1
    24   10   14 ar
    25   10   21 ar
    26   10   42 1
    27   11   15 ar
    28   11   22 ar
    29   11   43 1
    30   12   16 ar
    31   12   22 ar
    32   12   44 1
    33   13   23 ar
    34   13   45 1
    35   14   23 ar
    36   14   46 1
    37   15   24 ar
    38   15   47 1
    39   16   24 ar
    40   16   48 1
    41   17   18 1
    42   19   25 1
    43   20   26 1
    44   21   27 1
    45   22   28 1
    46   23   31 1
    47   24   32 1
    48   25   29 1
    49   26   30 1
    50   27   29 1
    51   28   30 1
