@<TRIPOS>MOLECULE
*****
   17    17     0     0     0
SMALL
NO_CHARGES

@<TRIPOS>ATOM
      1 C1          1.8624   -1.0796   -0.2141 C.ar      1 <0>         0.0000
      2 C2          0.6536   -0.6901   -0.7626 C.ar      1 <0>         0.0000
      3 C3          2.9300   -1.2793   -1.0999 C.ar      1 <0>         0.0000
      4 C4          0.6157   -0.5090   -2.1564 C.ar      1 <0>         0.0000
      5 C5         -1.1332   -0.6334   -3.9302 C.2       1 <0>         0.0000
      6 C6         -2.3624    0.1079   -4.4310 C.3       1 <0>         0.0000
      7 N1          2.8330   -1.0913   -2.4195 N.ar      1 <0>         0.0000
      8 N2          1.6786   -0.6877   -2.9499 N.ar      1 <0>         0.0000
      9 N3         -0.5758   -0.0783   -2.7753 N.am      1 <0>         0.0000
     10 O1         -0.6710   -1.6080   -4.4943 O.2       1 <0>         0.0000
     11 H1          1.9814   -1.2418    0.8534 H         1 <0>         0.0000
     12 H2         -0.2361   -0.5432   -0.1556 H         1 <0>         0.0000
     13 H3          3.9091   -1.5966   -0.7497 H         1 <0>         0.0000
     14 H4         -2.0416    0.8755   -5.1432 H         1 <0>         0.0000
     15 H5         -2.9273    0.6004   -3.6331 H         1 <0>         0.0000
     16 H6         -3.0091   -0.5964   -4.9555 H         1 <0>         0.0000
     17 H7         -1.1406    0.5834   -2.2592 H         1 <0>         0.0000
@<TRIPOS>BOND
     1    1    2 ar
     2    1    3 ar
     3    1   11 1
     4    2    4 ar
     5    2   12 1
     6    3    7 ar
     7    3   13 1
     8    4    8 ar
     9    4    9 1
    10    5    6 1
    11    5    9 am
    12    5   10 2
    13    6   14 1
    14    6   15 1
    15    6   16 1
    16    7    8 ar
    17    9   17 1
