@<TRIPOS>MOLECULE
*****
   17    17     0     0     0
SMALL
NO_CHARGES

@<TRIPOS>ATOM
      1 C1          1.9973   -0.9609    0.0436 C.ar      1 <0>         0.0000
      2 C2          0.7963   -0.4701   -0.4371 C.ar      1 <0>         0.0000
      3 C3          2.8716   -1.5811   -0.8606 C.ar      1 <0>         0.0000
      4 C4          0.5708   -0.6486   -1.8158 C.ar      1 <0>         0.0000
      5 C5         -1.6928    0.4181   -1.9849 C.2       1 <0>         0.0000
      6 C6         -2.7814    0.6785   -3.0112 C.3       1 <0>         0.0000
      7 N1          2.5975   -1.7188   -2.1606 N.ar      1 <0>         0.0000
      8 N2          1.4464   -1.2520   -2.6364 N.ar      1 <0>         0.0000
      9 N3         -0.5789   -0.2234   -2.4925 N.am      1 <0>         0.0000
     10 O1         -1.8127    0.7295   -0.8046 O.2       1 <0>         0.0000
     11 H1          2.2598   -0.8698    1.0938 H         1 <0>         0.0000
     12 H2          0.0605    0.0235    0.1834 H         1 <0>         0.0000
     13 H3          3.8292   -1.9861   -0.5440 H         1 <0>         0.0000
     14 H4         -3.4704   -0.1729   -3.0235 H         1 <0>         0.0000
     15 H5         -2.3907    0.8188   -4.0231 H         1 <0>         0.0000
     16 H6         -3.3415    1.5638   -2.7082 H         1 <0>         0.0000
     17 H7         -0.5499   -0.4473   -3.4821 H         1 <0>         0.0000
@<TRIPOS>BOND
     1    1    2 ar
     2    1    3 ar
     3    1   11 1
     4    2    4 ar
     5    2   12 1
     6    3    7 ar
     7    3   13 1
     8    4    8 ar
     9    4    9 1
    10    5    6 1
    11    5    9 am
    12    5   10 2
    13    6   14 1
    14    6   15 1
    15    6   16 1
    16    7    8 ar
    17    9   17 1
