@<TRIPOS>MOLECULE
*****
   31    31     0     0     0
SMALL
NO_CHARGES

@<TRIPOS>ATOM
      1 C1          2.8471   -1.6791   -0.9130 C.ar      1 <0>         0.0000
      2 C2          2.6736   -0.5529   -0.1048 C.ar      1 <0>         0.0000
      3 C3          3.6570   -2.7113   -0.4374 C.ar      1 <0>         0.0000
      4 C4          4.0889   -1.5981    1.5237 C.ar      1 <0>         0.0000
      5 C5          3.3091   -0.4922    1.1378 C.ar      1 <0>         0.0000
      6 C6          5.5323    1.3635    2.3597 C.2       1 <0>         0.0000
      7 C7          2.8539    0.4713    3.4707 C.2       1 <0>         0.0000
      8 C8          6.7506    2.1639    1.9320 C.3       1 <0>         0.0000
      9 C9          2.8604    1.3700    5.7447 C.3       1 <0>         0.0000
     10 C10         4.2138    2.5504    0.6119 C.3       1 <0>         0.0000
     11 C11         3.1787    0.7566    1.9874 C.3       1 <0>         0.0000
     12 N1          4.2671   -2.6809    0.7572 N.ar      1 <0>         0.0000
     13 N2          2.9880    1.5480    4.3022 N.am      1 <0>         0.0000
     14 N3          4.3124    1.6916    1.7927 N.am      1 <0>         0.0000
     15 O1          5.6206    0.4768    3.2073 O.2       1 <0>         0.0000
     16 O2          2.3698   -0.5988    3.8192 O.2       1 <0>         0.0000
     17 H1          2.3629   -1.7591   -1.8823 H         1 <0>         0.0000
     18 H2          2.0385    0.2668   -0.4368 H         1 <0>         0.0000
     19 H3          3.8200   -3.6060   -1.0370 H         1 <0>         0.0000
     20 H4          4.5814   -1.6010    2.4898 H         1 <0>         0.0000
     21 H5          6.6239    3.2349    2.1202 H         1 <0>         0.0000
     22 H6          7.6005    1.7991    2.5081 H         1 <0>         0.0000
     23 H7          6.9589    2.0325    0.8655 H         1 <0>         0.0000
     24 H8          2.7545    2.3496    6.2173 H         1 <0>         0.0000
     25 H9          3.7306    0.8525    6.1663 H         1 <0>         0.0000
     26 H10         1.9707    0.7740    5.9514 H         1 <0>         0.0000
     27 H11         4.3407    1.9829   -0.3190 H         1 <0>         0.0000
     28 H12         4.9614    3.3415    0.6445 H         1 <0>         0.0000
     29 H13         3.2290    3.0254    0.5959 H         1 <0>         0.0000
     30 H14         2.2999    1.3027    1.6277 H         1 <0>         0.0000
     31 H15         3.6094    2.2783    3.9798 H         1 <0>         0.0000
@<TRIPOS>BOND
     1    1    2 ar
     2    1    3 ar
     3    1   17 1
     4    2    5 ar
     5    2   18 1
     6    3   12 ar
     7    3   19 1
     8    4    5 ar
     9    4   12 ar
    10    4   20 1
    11    5   11 1
    12    6    8 1
    13    6   14 am
    14    6   15 2
    15    7   11 1
    16    7   13 am
    17    7   16 2
    18    8   21 1
    19    8   22 1
    20    8   23 1
    21    9   13 1
    22    9   24 1
    23    9   25 1
    24    9   26 1
    25   10   14 1
    26   10   27 1
    27   10   28 1
    28   10   29 1
    29   11   14 1
    30   11   30 1
    31   13   31 1
