@<TRIPOS>MOLECULE
*****
   31    31     0     0     0
SMALL
NO_CHARGES

@<TRIPOS>ATOM
      1 C1          3.7817   -2.1142   -1.8329 C.ar      1 <0>         0.0000
      2 C2          3.9267   -1.1663   -0.8190 C.ar      1 <0>         0.0000
      3 C3          2.5061   -2.3498   -2.3544 C.ar      1 <0>         0.0000
      4 C4          1.5704   -0.7864   -0.9699 C.ar      1 <0>         0.0000
      5 C5          2.7960   -0.4858   -0.3552 C.ar      1 <0>         0.0000
      6 C6          4.2814    2.4103    0.2106 C.2       1 <0>         0.0000
      7 C7          2.4017    0.0444    2.1576 C.2       1 <0>         0.0000
      8 C8          5.5875    3.1587    0.4144 C.3       1 <0>         0.0000
      9 C9          1.3637   -1.7670    3.4628 C.3       1 <0>         0.0000
     10 C10         5.1484    0.6911    1.7971 C.3       1 <0>         0.0000
     11 C11         2.8473    0.5437    0.7606 C.3       1 <0>         0.0000
     12 N1          1.4115   -1.6970   -1.9388 N.ar      1 <0>         0.0000
     13 N2          1.8825   -1.2104    2.2199 N.am      1 <0>         0.0000
     14 N3          4.1434    1.2068    0.8679 N.am      1 <0>         0.0000
     15 O1          3.3936    2.8532   -0.5190 O.2       1 <0>         0.0000
     16 O2          2.4965    0.7820    3.1370 O.2       1 <0>         0.0000
     17 H1          4.6393   -2.6578   -2.2194 H         1 <0>         0.0000
     18 H2          4.9078   -0.9464   -0.4092 H         1 <0>         0.0000
     19 H3          2.3578   -3.0843   -3.1443 H         1 <0>         0.0000
     20 H4          0.6690   -0.2553   -0.6631 H         1 <0>         0.0000
     21 H5          6.4283    2.6122   -0.0262 H         1 <0>         0.0000
     22 H6          5.4978    4.1242   -0.0827 H         1 <0>         0.0000
     23 H7          5.8083    3.3135    1.4746 H         1 <0>         0.0000
     24 H8          2.1542   -2.2496    4.0494 H         1 <0>         0.0000
     25 H9          0.5893   -2.5024    3.2326 H         1 <0>         0.0000
     26 H10         0.9354   -0.9618    4.0617 H         1 <0>         0.0000
     27 H11         5.1012    1.1900    2.7702 H         1 <0>         0.0000
     28 H12         6.1509    0.7980    1.3770 H         1 <0>         0.0000
     29 H13         4.9733   -0.3739    1.9626 H         1 <0>         0.0000
     30 H14         2.1297    1.3308    0.5101 H         1 <0>         0.0000
     31 H15         1.8780   -1.7789    1.3841 H         1 <0>         0.0000
@<TRIPOS>BOND
     1    1    2 ar
     2    1    3 ar
     3    1   17 1
     4    2    5 ar
     5    2   18 1
     6    3   12 ar
     7    3   19 1
     8    4    5 ar
     9    4   12 ar
    10    4   20 1
    11    5   11 1
    12    6    8 1
    13    6   14 am
    14    6   15 2
    15    7   11 1
    16    7   13 am
    17    7   16 2
    18    8   21 1
    19    8   22 1
    20    8   23 1
    21    9   13 1
    22    9   24 1
    23    9   25 1
    24    9   26 1
    25   10   14 1
    26   10   27 1
    27   10   28 1
    28   10   29 1
    29   11   14 1
    30   11   30 1
    31   13   31 1
