@<TRIPOS>MOLECULE
*****
   31    31     0     0     0
SMALL
NO_CHARGES

@<TRIPOS>ATOM
      1 C1          2.7004   -1.4602   -1.5110 C.ar      1 <0>         0.0000
      2 C2          2.8754   -0.4606   -0.5574 C.ar      1 <0>         0.0000
      3 C3          1.8216   -2.5093   -1.2198 C.ar      1 <0>         0.0000
      4 C4          1.3262   -1.6336    0.8439 C.ar      1 <0>         0.0000
      5 C5          2.1806   -0.5378    0.6574 C.ar      1 <0>         0.0000
      6 C6          3.9985    2.3224    2.0230 C.2       1 <0>         0.0000
      7 C7          1.7292    0.3544    3.0544 C.2       1 <0>         0.0000
      8 C8          5.4414    2.7154    2.2782 C.3       1 <0>         0.0000
      9 C9          0.7384    1.4971    4.9875 C.3       1 <0>         0.0000
     10 C10         4.6881   -0.0557    2.2416 C.3       1 <0>         0.0000
     11 C11         2.3246    0.5972    1.6531 C.3       1 <0>         0.0000
     12 N1          1.1426   -2.5999   -0.0708 N.ar      1 <0>         0.0000
     13 N2          1.1650    1.4701    3.5941 N.am      1 <0>         0.0000
     14 N3          3.7375    0.9857    1.8378 N.am      1 <0>         0.0000
     15 O1          3.1037    3.1773    1.9748 O.2       1 <0>         0.0000
     16 O2          1.8168   -0.7233    3.6447 O.2       1 <0>         0.0000
     17 H1          3.2253   -1.4301   -2.4619 H         1 <0>         0.0000
     18 H2          3.5471    0.3741   -0.7447 H         1 <0>         0.0000
     19 H3          1.6572   -3.3089   -1.9410 H         1 <0>         0.0000
     20 H4          0.7760   -1.7478    1.7719 H         1 <0>         0.0000
     21 H5          6.1028    2.3630    1.4807 H         1 <0>         0.0000
     22 H6          5.4887    3.8025    2.3336 H         1 <0>         0.0000
     23 H7          5.8049    2.2922    3.2201 H         1 <0>         0.0000
     24 H8          0.0611    2.3410    5.1360 H         1 <0>         0.0000
     25 H9          1.5891    1.5924    5.6736 H         1 <0>         0.0000
     26 H10         0.2151    0.5685    5.2200 H         1 <0>         0.0000
     27 H11         4.7861   -0.1158    3.3311 H         1 <0>         0.0000
     28 H12         5.6689    0.1247    1.7975 H         1 <0>         0.0000
     29 H13         4.3249   -1.0187    1.8855 H         1 <0>         0.0000
     30 H14         1.8422    1.4770    1.2241 H         1 <0>         0.0000
     31 H15         1.3669    2.3507    3.1281 H         1 <0>         0.0000
@<TRIPOS>BOND
     1    1    2 ar
     2    1    3 ar
     3    1   17 1
     4    2    5 ar
     5    2   18 1
     6    3   12 ar
     7    3   19 1
     8    4    5 ar
     9    4   12 ar
    10    4   20 1
    11    5   11 1
    12    6    8 1
    13    6   14 am
    14    6   15 2
    15    7   11 1
    16    7   13 am
    17    7   16 2
    18    8   21 1
    19    8   22 1
    20    8   23 1
    21    9   13 1
    22    9   24 1
    23    9   25 1
    24    9   26 1
    25   10   14 1
    26   10   27 1
    27   10   28 1
    28   10   29 1
    29   11   14 1
    30   11   30 1
    31   13   31 1
