@<TRIPOS>MOLECULE
*****
   31    31     0     0     0
SMALL
NO_CHARGES

@<TRIPOS>ATOM
      1 C1          3.4523   -2.9388   -0.5105 C.ar      1 <0>         0.0000
      2 C2          3.4092   -2.0333    0.5478 C.ar      1 <0>         0.0000
      3 C3          3.0084   -2.5309   -1.7732 C.ar      1 <0>         0.0000
      4 C4          2.4870   -0.4487   -0.9951 C.ar      1 <0>         0.0000
      5 C5          2.9218   -0.7418    0.3033 C.ar      1 <0>         0.0000
      6 C6          5.2631    0.4460    1.9834 C.2       1 <0>         0.0000
      7 C7          2.3747   -0.1136    2.7289 C.2       1 <0>         0.0000
      8 C8          6.6313    1.0847    1.8173 C.3       1 <0>         0.0000
      9 C9          2.2896    0.3871    5.1225 C.3       1 <0>         0.0000
     10 C10         4.3334    2.1738    0.4488 C.3       1 <0>         0.0000
     11 C11         2.8929    0.3524    1.3502 C.3       1 <0>         0.0000
     12 N1          2.5267   -1.3065   -2.0243 N.ar      1 <0>         0.0000
     13 N2          2.6002    0.7663    3.7490 N.am      1 <0>         0.0000
     14 N3          4.1762    1.0929    1.4235 N.am      1 <0>         0.0000
     15 O1          5.1219   -0.5953    2.6241 O.2       1 <0>         0.0000
     16 O2          1.6943   -1.1265    2.8457 O.2       1 <0>         0.0000
     17 H1          3.8186   -3.9510   -0.3632 H         1 <0>         0.0000
     18 H2          3.7389   -2.3109    1.5410 H         1 <0>         0.0000
     19 H3          3.0347   -3.2190   -2.6172 H         1 <0>         0.0000
     20 H4          2.0731    0.5361   -1.2189 H         1 <0>         0.0000
     21 H5          6.6608    2.1006    2.2242 H         1 <0>         0.0000
     22 H6          7.3500    0.4656    2.3536 H         1 <0>         0.0000
     23 H7          6.9207    1.1374    0.7630 H         1 <0>         0.0000
     24 H8          2.2899    1.2823    5.7493 H         1 <0>         0.0000
     25 H9          3.0153   -0.3348    5.5166 H         1 <0>         0.0000
     26 H10         1.2994   -0.0693    5.1495 H         1 <0>         0.0000
     27 H11         4.4639    1.7901   -0.5710 H         1 <0>         0.0000
     28 H12         5.1883    2.7999    0.7002 H         1 <0>         0.0000
     29 H13         3.4418    2.8060    0.4686 H         1 <0>         0.0000
     30 H14         2.1570    1.0955    1.0247 H         1 <0>         0.0000
     31 H15         3.3493    1.4307    3.6048 H         1 <0>         0.0000
@<TRIPOS>BOND
     1    1    2 ar
     2    1    3 ar
     3    1   17 1
     4    2    5 ar
     5    2   18 1
     6    3   12 ar
     7    3   19 1
     8    4    5 ar
     9    4   12 ar
    10    4   20 1
    11    5   11 1
    12    6    8 1
    13    6   14 am
    14    6   15 2
    15    7   11 1
    16    7   13 am
    17    7   16 2
    18    8   21 1
    19    8   22 1
    20    8   23 1
    21    9   13 1
    22    9   24 1
    23    9   25 1
    24    9   26 1
    25   10   14 1
    26   10   27 1
    27   10   28 1
    28   10   29 1
    29   11   14 1
    30   11   30 1
    31   13   31 1
