@<TRIPOS>MOLECULE
*****
   26    25     0     0     0
SMALL
NO_CHARGES

@<TRIPOS>ATOM
      1 C1         -2.8679   -0.4372    1.4781 C.2       1 <0>         0.0000
      2 C2          0.2200    0.5217   -0.2317 C.2       1 <0>         0.0000
      3 C3         -3.2973   -0.1887    2.9143 C.3       1 <0>         0.0000
      4 C4         -1.9957    1.0217   -1.3111 C.3       1 <0>         0.0000
      5 C5          2.3573    0.5355   -1.4864 C.3       1 <0>         0.0000
      6 C6          0.6702   -2.0943   -2.1915 C.3       1 <0>         0.0000
      7 C7         -1.2566    0.1316   -0.2934 C.3       1 <0>         0.0000
      8 N1         -1.7924    0.2824    1.0492 N.am      1 <0>         0.0000
      9 N2          1.0506   -0.0271   -1.1769 N.am      1 <0>         0.0000
     10 O1         -3.4604   -1.2375    0.7498 O.2       1 <0>         0.0000
     11 O2          0.6506    1.2915    0.6295 O.2       1 <0>         0.0000
     12 O3          0.4403   -0.6767   -2.2660 O.3       1 <0>         0.0000
     13 H1         -4.3242    0.1872    2.9130 H         1 <0>         0.0000
     14 H2         -3.2977   -1.1418    3.4497 H         1 <0>         0.0000
     15 H3         -2.6580    0.5219    3.4454 H         1 <0>         0.0000
     16 H4         -1.8982    2.0757   -1.0335 H         1 <0>         0.0000
     17 H5         -3.0542    0.7510   -1.3087 H         1 <0>         0.0000
     18 H6         -1.5955    0.8761   -2.3175 H         1 <0>         0.0000
     19 H7          3.0499   -0.2659   -1.7560 H         1 <0>         0.0000
     20 H8          2.7184    1.0452   -0.5938 H         1 <0>         0.0000
     21 H9          2.2826    1.2475   -2.3159 H         1 <0>         0.0000
     22 H10         0.1758   -2.5100   -3.0715 H         1 <0>         0.0000
     23 H11         0.2307   -2.5132   -1.2804 H         1 <0>         0.0000
     24 H12         1.7415   -2.3205   -2.2260 H         1 <0>         0.0000
     25 H13        -1.3791   -0.9112   -0.5874 H         1 <0>         0.0000
     26 H14        -1.2894    0.9104    1.6657 H         1 <0>         0.0000
@<TRIPOS>BOND
     1    1    3 1
     2    1    8 am
     3    1   10 2
     4    2    7 1
     5    2    9 am
     6    2   11 2
     7    3   13 1
     8    3   14 1
     9    3   15 1
    10    4    7 1
    11    4   16 1
    12    4   17 1
    13    4   18 1
    14    5    9 1
    15    5   19 1
    16    5   20 1
    17    5   21 1
    18    6   12 1
    19    6   22 1
    20    6   23 1
    21    6   24 1
    22    7    8 1
    23    7   25 1
    24    8   26 1
    25    9   12 1
