@<TRIPOS>MOLECULE
*****
   35    35     0     0     0
SMALL
NO_CHARGES

@<TRIPOS>ATOM
      1 C1         -1.1866   -4.2770   -3.3918 C.2       1 <0>         0.0000
      2 C2          3.6583   -0.7440    0.0360 C.3       1 <0>         0.0000
      3 C3          1.3993    0.0491    0.1666 C.3       1 <0>         0.0000
      4 C4          3.1682   -2.0308   -0.6209 C.3       1 <0>         0.0000
      5 C5          0.9124   -1.2378   -0.4894 C.3       1 <0>         0.0000
      6 C6         -1.7018   -5.5471   -4.0500 C.3       1 <0>         0.0000
      7 C7          1.4581   -1.8877   -4.4086 C.3       1 <0>         0.0000
      8 C8          3.0952    1.0172    1.5879 C.3       1 <0>         0.0000
      9 C9          1.4774   -2.9617   -2.1028 C.3       1 <0>         0.0000
     10 C10         0.6294   -2.5889   -3.3344 C.3       1 <0>         0.0000
     11 N1          2.6320   -0.1898    0.9173 N.3       1 <0>         0.0000
     12 N2          1.9435   -1.7790   -1.3819 N.3       1 <0>         0.0000
     13 N3         -0.0124   -3.7819   -3.8876 N.am      1 <0>         0.0000
     14 O1         -1.7996   -3.7285   -2.4748 O.2       1 <0>         0.0000
     15 H1          4.5540   -0.9582    0.6302 H         1 <0>         0.0000
     16 H2          3.9433   -0.0243   -0.7566 H         1 <0>         0.0000
     17 H3          1.5445    0.8205   -0.6148 H         1 <0>         0.0000
     18 H4          0.6325    0.4150    0.8585 H         1 <0>         0.0000
     19 H5          3.9390   -2.3998   -1.3063 H         1 <0>         0.0000
     20 H6          3.0130   -2.7977    0.1611 H         1 <0>         0.0000
     21 H7          0.6464   -1.9684    0.2961 H         1 <0>         0.0000
     22 H8          0.0052   -1.0308   -1.0632 H         1 <0>         0.0000
     23 H9         -1.7790   -6.3299   -3.2904 H         1 <0>         0.0000
     24 H10        -2.7091   -5.3596   -4.4309 H         1 <0>         0.0000
     25 H11        -1.0720   -5.9068   -4.8692 H         1 <0>         0.0000
     26 H12         2.2273   -2.5588   -4.8137 H         1 <0>         0.0000
     27 H13         0.8273   -1.5472   -5.2356 H         1 <0>         0.0000
     28 H14         1.9659   -1.0261   -3.9691 H         1 <0>         0.0000
     29 H15         3.9904    0.7929    2.1774 H         1 <0>         0.0000
     30 H16         2.3211    1.3802    2.2721 H         1 <0>         0.0000
     31 H17         3.3430    1.8356    0.8844 H         1 <0>         0.0000
     32 H18         2.3525   -3.5269   -2.4466 H         1 <0>         0.0000
     33 H19         0.8888   -3.6331   -1.4560 H         1 <0>         0.0000
     34 H20        -0.1837   -1.9341   -3.0144 H         1 <0>         0.0000
     35 H21         0.4727   -4.2975   -4.6097 H         1 <0>         0.0000
@<TRIPOS>BOND
     1    1    6 1
     2    1   13 am
     3    1   14 2
     4    2    4 1
     5    2   11 1
     6    2   15 1
     7    2   16 1
     8    3    5 1
     9    3   11 1
    10    3   17 1
    11    3   18 1
    12    4   12 1
    13    4   19 1
    14    4   20 1
    15    5   12 1
    16    5   21 1
    17    5   22 1
    18    6   23 1
    19    6   24 1
    20    6   25 1
    21    7   10 1
    22    7   26 1
    23    7   27 1
    24    7   28 1
    25    8   11 1
    26    8   29 1
    27    8   30 1
    28    8   31 1
    29    9   10 1
    30    9   12 1
    31    9   32 1
    32    9   33 1
    33   10   13 1
    34   10   34 1
    35   13   35 1
