@<TRIPOS>MOLECULE
*****
   26    25     0     0     0
SMALL
NO_CHARGES

@<TRIPOS>ATOM
      1 C1         -2.6133    1.5736    1.9375 C.2       1 <0>         0.0000
      2 C2         -0.1270    0.9693    0.0467 C.2       1 <0>         0.0000
      3 C3         -2.8205    1.1848    3.3939 C.3       1 <0>         0.0000
      4 C4         -2.2888    1.6629   -1.1153 C.3       1 <0>         0.0000
      5 C5          2.0577    1.2595   -1.0892 C.3       1 <0>         0.0000
      6 C6          0.4457   -1.0816   -2.5214 C.3       1 <0>         0.0000
      7 C7         -1.6195    0.6416   -0.1789 C.3       1 <0>         0.0000
      8 N1         -2.2865    0.5083    1.1138 N.am      1 <0>         0.0000
      9 N2          0.7470    0.6332   -0.9715 N.am      1 <0>         0.0000
     10 O1         -2.7511    2.7271    1.5497 O.2       1 <0>         0.0000
     11 O2          0.2903    1.4524    1.0935 O.2       1 <0>         0.0000
     12 O3          0.1782    0.2949   -2.2181 O.3       1 <0>         0.0000
     13 H1         -1.8577    1.2612    3.9108 H         1 <0>         0.0000
     14 H2         -3.5150    1.8889    3.8539 H         1 <0>         0.0000
     15 H3         -3.1985    0.1646    3.5150 H         1 <0>         0.0000
     16 H4         -2.1496    2.6796   -0.7526 H         1 <0>         0.0000
     17 H5         -3.3631    1.4625   -1.1532 H         1 <0>         0.0000
     18 H6         -1.8702    1.5606   -2.1178 H         1 <0>         0.0000
     19 H7          2.7688    0.5532   -1.5260 H         1 <0>         0.0000
     20 H8          2.3844    1.5320   -0.0864 H         1 <0>         0.0000
     21 H9          2.0009    2.1559   -1.7171 H         1 <0>         0.0000
     22 H10        -0.0186   -1.2580   -3.4940 H         1 <0>         0.0000
     23 H11         0.0030   -1.7421   -1.7674 H         1 <0>         0.0000
     24 H12         1.5229   -1.2705   -2.5879 H         1 <0>         0.0000
     25 H13        -1.6861   -0.3394   -0.6591 H         1 <0>         0.0000
     26 H14        -2.0204   -0.3276    1.6203 H         1 <0>         0.0000
@<TRIPOS>BOND
     1    1    3 1
     2    1    8 am
     3    1   10 2
     4    2    7 1
     5    2    9 am
     6    2   11 2
     7    3   13 1
     8    3   14 1
     9    3   15 1
    10    4    7 1
    11    4   16 1
    12    4   17 1
    13    4   18 1
    14    5    9 1
    15    5   19 1
    16    5   20 1
    17    5   21 1
    18    6   12 1
    19    6   22 1
    20    6   23 1
    21    6   24 1
    22    7    8 1
    23    7   25 1
    24    8   26 1
    25    9   12 1
