@<TRIPOS>MOLECULE
*****
   24    23     0     0     0
SMALL
NO_CHARGES

@<TRIPOS>ATOM
      1 C1          0.5011   -2.7861    1.9362 C.2       1 <0>         0.0000
      2 C2          2.8014   -2.0161    1.4477 C.3       1 <0>         0.0000
      3 C3         -1.0470    0.2690    5.3653 C.3       1 <0>         0.0000
      4 C4         -0.8870   -2.8372    4.0379 C.3       1 <0>         0.0000
      5 C5         -1.8789   -1.7506    3.6153 C.3       1 <0>         0.0000
      6 C6         -0.3375   -3.6774    2.8666 C.3       1 <0>         0.0000
      7 N1          0.4796   -4.7781    3.4115 N.3       1 <0>         0.0000
      8 N2          1.8381   -2.8243    2.1757 N.am      1 <0>         0.0000
      9 O1         -0.0343   -2.0753    1.0816 O.2       1 <0>         0.0000
     10 S1         -2.5138   -0.7638    5.0220 S.3       1 <0>         0.0000
     11 H1          3.5626   -2.6469    0.9755 H         1 <0>         0.0000
     12 H2          3.2991   -1.3001    2.1121 H         1 <0>         0.0000
     13 H3          2.2640   -1.4659    0.6742 H         1 <0>         0.0000
     14 H4         -1.3359    0.9880    6.1357 H         1 <0>         0.0000
     15 H5         -0.7425    0.8162    4.4684 H         1 <0>         0.0000
     16 H6         -0.2066   -0.3224    5.7385 H         1 <0>         0.0000
     17 H7         -0.0403   -2.3981    4.5766 H         1 <0>         0.0000
     18 H8         -1.3907   -3.5124    4.7409 H         1 <0>         0.0000
     19 H9         -2.7640   -2.2020    3.1565 H         1 <0>         0.0000
     20 H10        -1.4453   -1.0782    2.8724 H         1 <0>         0.0000
     21 H11        -1.1835   -4.0267    2.2588 H         1 <0>         0.0000
     22 H12         0.6085   -5.5002    2.7042 H         1 <0>         0.0000
     23 H13        -0.0051   -5.2165    4.1927 H         1 <0>         0.0000
     24 H14         2.1353   -3.4750    2.8965 H         1 <0>         0.0000
@<TRIPOS>BOND
     1    1    6 1
     2    1    8 am
     3    1    9 2
     4    2    8 1
     5    2   11 1
     6    2   12 1
     7    2   13 1
     8    3   10 1
     9    3   14 1
    10    3   15 1
    11    3   16 1
    12    4    5 1
    13    4    6 1
    14    4   17 1
    15    4   18 1
    16    5   10 1
    17    5   19 1
    18    5   20 1
    19    6    7 1
    20    6   21 1
    21    7   22 1
    22    7   23 1
    23    8   24 1
