@<TRIPOS>MOLECULE
*****
   22    23     0     0     0
SMALL
NO_CHARGES

@<TRIPOS>ATOM
      1 C1          3.3249   -0.6572   -0.2688 C.ar      1 <0>         0.0000
      2 C2          1.9692   -0.8699   -0.0149 C.ar      1 <0>         0.0000
      3 C3          1.4948    1.4126   -0.6388 C.ar      1 <0>         0.0000
      4 C4          3.7723    0.5935   -0.7118 C.ar      1 <0>         0.0000
      5 C5          2.8515    1.6264   -0.8975 C.ar      1 <0>         0.0000
      6 C6          1.0547    0.1648   -0.1994 C.ar      1 <0>         0.0000
      7 C7          5.1842    0.8276   -0.9700 C.2       1 <0>         0.0000
      8 C8          5.5608    2.0246   -1.4345 C.2       1 <0>         0.0000
      9 C9          4.5622    3.1220   -1.6892 C.3       1 <0>         0.0000
     10 C10         6.9939    2.3438   -1.7392 C.3       1 <0>         0.0000
     11 O1          3.1980    2.8794   -1.3157 O.3       1 <0>         0.0000
     12 O2          7.1261    2.6932   -3.1045 O.3       1 <0>         0.0000
     13 F1         -0.2461   -0.0388    0.0459 F         1 <0>         0.0000
     14 H1          4.0241   -1.4759   -0.1158 H         1 <0>         0.0000
     15 H2          1.6273   -1.8421    0.3278 H         1 <0>         0.0000
     16 H3          0.7745    2.2146   -0.7784 H         1 <0>         0.0000
     17 H4          5.8954    0.0297   -0.7882 H         1 <0>         0.0000
     18 H5          4.8739    4.0228   -1.1477 H         1 <0>         0.0000
     19 H6          4.5610    3.3683   -2.7572 H         1 <0>         0.0000
     20 H7          7.6228    1.4806   -1.5264 H         1 <0>         0.0000
     21 H8          7.3159    3.1848   -1.1273 H         1 <0>         0.0000
     22 H9          8.0655    2.8917   -3.2592 H         1 <0>         0.0000
@<TRIPOS>BOND
     1    1    2 ar
     2    1    4 ar
     3    1   14 1
     4    2    6 ar
     5    2   15 1
     6    3    5 ar
     7    3    6 ar
     8    3   16 1
     9    4    5 ar
    10    4    7 1
    11    5   11 1
    12    6   13 1
    13    7    8 2
    14    7   17 1
    15    8    9 1
    16    8   10 1
    17    9   11 1
    18    9   18 1
    19    9   19 1
    20   10   12 1
    21   10   20 1
    22   10   21 1
    23   12   22 1
