@<TRIPOS>MOLECULE
*****
   18    18     0     0     0
SMALL
NO_CHARGES

@<TRIPOS>ATOM
      1 C1          5.8190    1.1350    0.8130 C.ar      1 <0>         0.0000
      2 C2          4.5780    1.6420    1.2370 C.ar      1 <0>         0.0000
      3 C3          5.8680    0.1300   -0.1690 C.ar      1 <0>         0.0000
      4 C4          3.3870    1.1460    0.6780 C.ar      1 <0>         0.0000
      5 C5          4.6760   -0.3680   -0.7260 C.ar      1 <0>         0.0000
      6 C6          3.4310    0.1370   -0.3040 C.ar      1 <0>         0.0000
      7 C7          2.1430   -0.3960   -0.9120 C.3       1 <0>         0.0000
      8 C8          1.5770   -1.4550    0.0500 C.3       1 <0>         0.0000
      9 F1          0.9500   -0.7670    1.0480 F         1 <0>         0.0000
     10 H1          6.7340    1.5170    1.2430 H         1 <0>         0.0000
     11 H2          4.5380    2.4120    1.9940 H         1 <0>         0.0000
     12 H3          6.8210   -0.2600   -0.4950 H         1 <0>         0.0000
     13 H4          2.4350    1.5340    1.0130 H         1 <0>         0.0000
     14 H5          4.7260   -1.1390   -1.4820 H         1 <0>         0.0000
     15 H6          2.3590   -0.8600   -1.8740 H         1 <0>         0.0000
     16 H7          1.4240    0.4110   -1.0590 H         1 <0>         0.0000
     17 H8          2.3820   -2.0480    0.4640 H         1 <0>         0.0000
     18 H9          0.8380   -2.0460   -0.4730 H         1 <0>         0.0000
@<TRIPOS>BOND
     1    1    2 ar
     2    1    3 ar
     3    1   10 1
     4    2    4 ar
     5    2   11 1
     6    3    5 ar
     7    3   12 1
     8    4    6 ar
     9    4   13 1
    10    5    6 ar
    11    5   14 1
    12    6    7 1
    13    7    8 1
    14    7   15 1
    15    7   16 1
    16    8    9 1
    17    8   17 1
    18    8   18 1
