@<TRIPOS>MOLECULE
*****
   20    19     0     0     0
SMALL
NO_CHARGES

@<TRIPOS>ATOM
      1 C1         -1.0869    0.1406    1.5083 C.2       1 <0>         0.0000
      2 C2          1.2733    1.9590   -1.0181 C.3       1 <0>         0.0000
      3 C3          1.6795   -2.3694   -0.9912 C.3       1 <0>         0.0000
      4 C4         -2.3931    0.6297    2.2395 C.3       1 <0>         0.0000
      5 N1         -1.2216    0.0546    0.1403 N.am      1 <0>         0.0000
      6 O1         -0.0719   -0.0809    2.1263 O.2       1 <0>         0.0000
      7 O2         -0.5249   -0.1902   -2.3468 O.2       1 <0>         0.0000
      8 O3          1.2691    0.5724   -0.6033 O.3       1 <0>         0.0000
      9 O4          0.4709   -1.7684   -0.4643 O.3       1 <0>         0.0000
     10 P1          0.0063   -0.3377   -0.9757 P.3       1 <0>         0.0000
     11 Cl1        -3.8130   -0.3541    1.7049 Cl        1 <0>         0.0000
     12 Cl2        -2.2021    0.5005    3.9941 Cl        1 <0>         0.0000
     13 Cl3        -2.6538    2.3588    1.7687 Cl        1 <0>         0.0000
     14 H1          2.2583    2.3466   -0.7593 H         1 <0>         0.0000
     15 H2          0.5039    2.5134   -0.4727 H         1 <0>         0.0000
     16 H3          1.1023    2.0341   -2.0942 H         1 <0>         0.0000
     17 H4          1.7447   -3.3543   -0.5303 H         1 <0>         0.0000
     18 H5          2.5448   -1.7643   -0.7126 H         1 <0>         0.0000
     19 H6          1.6108   -2.4682   -2.0776 H         1 <0>         0.0000
     20 H7         -2.1334    0.2198   -0.2760 H         1 <0>         0.0000
@<TRIPOS>BOND
     1    1    4 1
     2    1    5 am
     3    1    6 2
     4    2    8 1
     5    2   14 1
     6    2   15 1
     7    2   16 1
     8    3    9 1
     9    3   17 1
    10    3   18 1
    11    3   19 1
    12    4   11 1
    13    4   12 1
    14    4   13 1
    15    5   10 1
    16    5   20 1
    17    7   10 2
    18    8   10 1
    19    9   10 1
