@<TRIPOS>MOLECULE
*****
   49    51     0     0     0
SMALL
NO_CHARGES

@<TRIPOS>ATOM
      1 C1         -1.6077    2.4246    1.8846 C.ar      1 <0>         0.0000
      2 C2          4.0286   -0.7568   -0.5411 C.ar      1 <0>         0.0000
      3 C3         -0.6738    1.3890    1.8925 C.ar      1 <0>         0.0000
      4 C4          2.9762   -0.8941    0.3633 C.ar      1 <0>         0.0000
      5 C5         -2.8222    1.3066    0.1364 C.ar      1 <0>         0.0000
      6 C6          1.3941   -0.5740   -1.4566 C.ar      1 <0>         0.0000
      7 C7         -1.9082    0.2522    0.1269 C.ar      1 <0>         0.0000
      8 C8         -2.6990    2.3978    1.0077 C.ar      1 <0>         0.0000
      9 C9          3.7981   -0.5279   -1.9007 C.ar      1 <0>         0.0000
     10 C10         2.4715   -0.4276   -2.3501 C.ar      1 <0>         0.0000
     11 C11         1.6615   -0.8207   -0.0956 C.ar      1 <0>         0.0000
     12 C12        -0.8210    0.3062    1.0216 C.ar      1 <0>         0.0000
     13 C13        -0.0148   -0.3498   -1.8943 C.2       1 <0>         0.0000
     14 C14        -2.0913   -0.8739   -0.8657 C.3       1 <0>         0.0000
     15 C15        -3.6919    3.5336    0.9624 C.3       1 <0>         0.0000
     16 C16         4.5419    2.1449   -3.0169 C.3       1 <0>         0.0000
     17 C17         6.7471    1.1690   -3.7813 C.3       1 <0>         0.0000
     18 C18         1.6603   -1.1926   -4.4573 C.3       1 <0>         0.0000
     19 C19         4.9695   -0.3627   -2.8521 C.3       1 <0>         0.0000
     20 C20         5.5886    1.0475   -2.7821 C.3       1 <0>         0.0000
     21 O1         -0.4227    0.5703   -2.5685 O.2       1 <0>         0.0000
     22 O2          1.1290   -0.7087    2.4708 O.2       1 <0>         0.0000
     23 O3         -0.2759   -2.3286    1.1314 O.2       1 <0>         0.0000
     24 O4         -0.8019   -1.3073   -1.3379 O.3       1 <0>         0.0000
     25 O5          6.0173   -1.2910   -2.5257 O.3       1 <0>         0.0000
     26 O6          2.2580   -0.1471   -3.6776 O.3       1 <0>         0.0000
     27 S1          0.3958   -1.0279    1.2331 S.o2      1 <0>         0.0000
     28 H1         -1.4842    3.2589    2.5706 H         1 <0>         0.0000
     29 H2          5.0549   -0.8336   -0.1941 H         1 <0>         0.0000
     30 H3          0.1603    1.3981    2.5856 H         1 <0>         0.0000
     31 H4          3.1653   -1.0432    1.4202 H         1 <0>         0.0000
     32 H5         -3.6466    1.2854   -0.5736 H         1 <0>         0.0000
     33 H6         -2.5115   -1.7633   -0.3936 H         1 <0>         0.0000
     34 H7         -2.7217   -0.5555   -1.6987 H         1 <0>         0.0000
     35 H8         -3.4168    4.2529    0.1819 H         1 <0>         0.0000
     36 H9         -4.7004    3.1748    0.7371 H         1 <0>         0.0000
     37 H10        -3.7243    4.0732    1.9128 H         1 <0>         0.0000
     38 H11         4.0589    2.0295   -3.9928 H         1 <0>         0.0000
     39 H12         3.7566    2.1374   -2.2556 H         1 <0>         0.0000
     40 H13         5.0213    3.1288   -2.9918 H         1 <0>         0.0000
     41 H14         6.3797    1.0781   -4.8112 H         1 <0>         0.0000
     42 H15         7.2308    2.1472   -3.6874 H         1 <0>         0.0000
     43 H16         7.4983    0.3937   -3.6164 H         1 <0>         0.0000
     44 H17         1.5772   -0.8007   -5.4719 H         1 <0>         0.0000
     45 H18         0.6628   -1.4557   -4.0935 H         1 <0>         0.0000
     46 H19         2.2978   -2.0854   -4.4535 H         1 <0>         0.0000
     47 H20         4.6204   -0.5337   -3.8778 H         1 <0>         0.0000
     48 H21         5.9912    1.1582   -1.7661 H         1 <0>         0.0000
     49 H22         5.6574   -2.1888   -2.6020 H         1 <0>         0.0000
@<TRIPOS>BOND
     1    1    3 ar
     2    1    8 ar
     3    1   28 1
     4    2    4 ar
     5    2    9 ar
     6    2   29 1
     7    3   12 ar
     8    3   30 1
     9    4   11 ar
    10    4   31 1
    11    5    7 ar
    12    5    8 ar
    13    5   32 1
    14    6   10 ar
    15    6   11 ar
    16    6   13 1
    17    7   12 ar
    18    7   14 1
    19    8   15 1
    20    9   10 ar
    21    9   19 1
    22   10   26 1
    23   11   27 1
    24   12   27 1
    25   13   21 2
    26   13   24 1
    27   14   24 1
    28   14   33 1
    29   14   34 1
    30   15   35 1
    31   15   36 1
    32   15   37 1
    33   16   20 1
    34   16   38 1
    35   16   39 1
    36   16   40 1
    37   17   20 1
    38   17   41 1
    39   17   42 1
    40   17   43 1
    41   18   26 1
    42   18   44 1
    43   18   45 1
    44   18   46 1
    45   19   20 1
    46   19   25 1
    47   19   47 1
    48   20   48 1
    49   22   27 2
    50   23   27 2
    51   25   49 1
