@<TRIPOS>MOLECULE
*****
   49    52     0     0     0
SMALL
NO_CHARGES

@<TRIPOS>ATOM
      1 C1          2.7916   -5.4141    1.4649 C.ar      1 <0>         0.0000
      2 C2          3.0658   -5.5226    2.8303 C.ar      1 <0>         0.0000
      3 C3          3.4794   -4.4896    0.6760 C.ar      1 <0>         0.0000
      4 C4          7.1736    0.0158    3.2056 C.ar      1 <0>         0.0000
      5 C5          4.7411   -3.7989    2.6057 C.ar      1 <0>         0.0000
      6 C6          5.4595    1.7588    4.6091 C.ar      1 <0>         0.0000
      7 C7          4.1513   -5.8781    5.7482 C.2       1 <0>         0.0000
      8 C8          4.8194   -3.7656    5.6800 C.2       1 <0>         0.0000
      9 C9          5.7980    0.0750    2.8623 C.ar      1 <0>         0.0000
     10 C10         4.0438   -4.7063    3.4215 C.ar      1 <0>         0.0000
     11 C11         4.3234   -4.7769    4.8618 C.2       1 <0>         0.0000
     12 C12         4.4660   -3.6728    1.2444 C.ar      1 <0>         0.0000
     13 C13         4.9316    0.9542    3.5636 C.ar      1 <0>         0.0000
     14 C14         7.6697    0.8013    4.2216 C.ar      1 <0>         0.0000
     15 C15         6.7975    1.6826    4.9313 C.ar      1 <0>         0.0000
     16 C16         5.1681   -0.7193    1.8400 C.ar      1 <0>         0.0000
     17 C17         3.1479    0.2888    2.2967 C.ar      1 <0>         0.0000
     18 C18         1.6884    0.3711    1.9377 C.3       1 <0>         0.0000
     19 C19         6.2961   -3.4182   -0.4818 C.3       1 <0>         0.0000
     20 C20         6.6566    3.3380    6.6596 C.3       1 <0>         0.0000
     21 C21         5.2348   -2.6960    0.3580 C.3       1 <0>         0.0000
     22 N1          4.5098   -5.5821    6.9989 N.2       1 <0>         0.0000
     23 N2          3.5967    1.0570    3.2740 N.ar      1 <0>         0.0000
     24 N3          3.8752   -0.6021    1.5701 N.ar      1 <0>         0.0000
     25 N4          4.9102   -4.2909    6.9317 N.pl3     1 <0>         0.0000
     26 N5          5.8927   -1.6280    1.1112 N.pl3     1 <0>         0.0000
     27 O1          8.9948    0.7486    4.5561 O.3       1 <0>         0.0000
     28 O2          7.4342    2.4005    5.9114 O.3       1 <0>         0.0000
     29 H1          2.0225   -6.0397    1.0186 H         1 <0>         0.0000
     30 H2          2.4981   -6.2174    3.4433 H         1 <0>         0.0000
     31 H3          3.2403   -4.3942   -0.3814 H         1 <0>         0.0000
     32 H4          7.8783   -0.6229    2.6811 H         1 <0>         0.0000
     33 H5          5.5088   -3.1777    3.0574 H         1 <0>         0.0000
     34 H6          4.7725    2.4200    5.1243 H         1 <0>         0.0000
     35 H7          3.8010   -6.8766    5.5173 H         1 <0>         0.0000
     36 H8          5.0759   -2.7356    5.4702 H         1 <0>         0.0000
     37 H9          1.5754    0.6553    0.8860 H         1 <0>         0.0000
     38 H10         1.2196   -0.6115    2.0555 H         1 <0>         0.0000
     39 H11         1.1794    1.0995    2.5702 H         1 <0>         0.0000
     40 H12         7.0450   -3.8935    0.1631 H         1 <0>         0.0000
     41 H13         5.8348   -4.2067   -1.0811 H         1 <0>         0.0000
     42 H14         6.8008   -2.7156   -1.1525 H         1 <0>         0.0000
     43 H15         7.3448    3.8027    7.3661 H         1 <0>         0.0000
     44 H16         5.8537    2.8298    7.2050 H         1 <0>         0.0000
     45 H17         6.2297    4.1019    6.0007 H         1 <0>         0.0000
     46 H18         4.5147   -2.2160   -0.3092 H         1 <0>         0.0000
     47 H19         5.2193   -3.8290    7.7760 H         1 <0>         0.0000
     48 H20         6.8121   -1.8538    1.4652 H         1 <0>         0.0000
     49 H21         9.1396    1.3882    5.2761 H         1 <0>         0.0000
@<TRIPOS>BOND
     1    1    2 ar
     2    1    3 ar
     3    1   29 1
     4    2   10 ar
     5    2   30 1
     6    3   12 ar
     7    3   31 1
     8    4    9 ar
     9    4   14 ar
    10    4   32 1
    11    5   10 ar
    12    5   12 ar
    13    5   33 1
    14    6   13 ar
    15    6   15 ar
    16    6   34 1
    17    7   11 1
    18    7   22 2
    19    7   35 1
    20    8   11 2
    21    8   25 1
    22    8   36 1
    23    9   13 ar
    24    9   16 ar
    25   10   11 1
    26   12   21 1
    27   13   23 ar
    28   14   15 ar
    29   14   27 1
    30   15   28 1
    31   16   24 ar
    32   16   26 1
    33   17   18 1
    34   17   23 ar
    35   17   24 ar
    36   18   37 1
    37   18   38 1
    38   18   39 1
    39   19   21 1
    40   19   40 1
    41   19   41 1
    42   19   42 1
    43   20   28 1
    44   20   43 1
    45   20   44 1
    46   20   45 1
    47   21   26 1
    48   21   46 1
    49   22   25 1
    50   25   47 1
    51   26   48 1
    52   27   49 1
