@<TRIPOS>MOLECULE
*****
   65    69     0     0     0
SMALL
NO_CHARGES

@<TRIPOS>ATOM
      1 C1          7.7668    4.1227    6.3266 C.ar      1 <0>         0.0000
      2 C2          5.9994    1.0642    1.3732 C.ar      1 <0>         0.0000
      3 C3          6.6064    3.9979    5.5640 C.ar      1 <0>         0.0000
      4 C4          6.3545    0.4658    0.1658 C.ar      1 <0>         0.0000
      5 C5          5.0066    2.9166    0.1803 C.ar      1 <0>         0.0000
      6 C6          7.9802    3.2260    7.3806 C.ar      1 <0>         0.0000
      7 C7          6.0108    2.1429    6.9606 C.ar      1 <0>         0.0000
      8 C8          5.3137    2.2875    1.3916 C.ar      1 <0>         0.0000
      9 C9          5.6973    2.9784    5.8819 C.ar      1 <0>         0.0000
     10 C10         6.0072    1.0725   -1.0482 C.ar      1 <0>         0.0000
     11 C11         5.3365    2.3120   -1.0292 C.ar      1 <0>         0.0000
     12 C12         6.4716    1.2328   -3.4331 C.2       1 <0>         0.0000
     13 C13         4.9383    2.9995    2.6567 C.2       1 <0>         0.0000
     14 C14         3.8048    3.4126   -2.5894 C.2       1 <0>         0.0000
     15 C15         6.1286    2.7098   -3.2652 C.3       1 <0>         0.0000
     16 C16         0.2775    5.9782   -7.6284 C.3       1 <0>         0.0000
     17 C17         1.7093    5.4447   -7.7738 C.3       1 <0>         0.0000
     18 C18        -0.4999    5.1918   -6.5635 C.3       1 <0>         0.0000
     19 C19         5.8537   -1.8167   -3.3049 C.3       1 <0>         0.0000
     20 C20         5.6419   -1.9454   -1.8158 C.3       1 <0>         0.0000
     21 C21         2.4436    5.4342   -6.4255 C.3       1 <0>         0.0000
     22 C22         0.2444    5.1827   -5.2215 C.3       1 <0>         0.0000
     23 C23         6.6345   -0.9423   -2.3599 C.3       1 <0>         0.0000
     24 C24         1.6706    4.6379   -5.3636 C.3       1 <0>         0.0000
     25 C25         4.4363    2.7700    5.0699 C.3       1 <0>         0.0000
     26 C26         3.5984    3.9774   -3.9962 C.3       1 <0>         0.0000
     27 N1          7.1229    2.2487    7.7029 N.ar      1 <0>         0.0000
     28 N2          6.2993    0.4631   -2.2933 N.am      1 <0>         0.0000
     29 N3          5.0622    2.9104   -2.2891 N.am      1 <0>         0.0000
     30 N4          4.7026    2.2067    3.7469 N.am      1 <0>         0.0000
     31 N5          2.3437    4.7014   -4.0641 N.3       1 <0>         0.0000
     32 O1          6.8783    0.7838   -4.4956 O.2       1 <0>         0.0000
     33 O2          4.8354    4.2284    2.7039 O.2       1 <0>         0.0000
     34 O3          2.8928    3.3983   -1.7697 O.2       1 <0>         0.0000
     35 H1          8.4960    4.9001    6.1160 H         1 <0>         0.0000
     36 H2          6.3098    0.5858    2.2983 H         1 <0>         0.0000
     37 H3          6.3991    4.6681    4.7339 H         1 <0>         0.0000
     38 H4          6.8975   -0.4717    0.1646 H         1 <0>         0.0000
     39 H5          4.4991    3.8729    0.1937 H         1 <0>         0.0000
     40 H6          8.8782    3.2982    7.9928 H         1 <0>         0.0000
     41 H7          5.3247    1.3436    7.2451 H         1 <0>         0.0000
     42 H8          7.0330    3.2439   -2.9446 H         1 <0>         0.0000
     43 H9          5.8527    3.0816   -4.2464 H         1 <0>         0.0000
     44 H10        -0.2450    5.9326   -8.5913 H         1 <0>         0.0000
     45 H11         0.3147    7.0374   -7.3390 H         1 <0>         0.0000
     46 H12         1.6749    4.4233   -8.1776 H         1 <0>         0.0000
     47 H13         2.2691    6.0471   -8.4986 H         1 <0>         0.0000
     48 H14        -1.5013    5.6173   -6.4306 H         1 <0>         0.0000
     49 H15        -0.6424    4.1586   -6.9091 H         1 <0>         0.0000
     50 H16         6.4053   -2.5881   -3.8321 H         1 <0>         0.0000
     51 H17         5.0756   -1.3365   -3.8873 H         1 <0>         0.0000
     52 H18         4.7197   -1.5513   -1.4006 H         1 <0>         0.0000
     53 H19         6.0409   -2.8126   -1.2981 H         1 <0>         0.0000
     54 H20         3.4499    5.0174   -6.5541 H         1 <0>         0.0000
     55 H21         2.5694    6.4599   -6.0548 H         1 <0>         0.0000
     56 H22         0.3041    6.2022   -4.8196 H         1 <0>         0.0000
     57 H23        -0.3073    4.5827   -4.4861 H         1 <0>         0.0000
     58 H24         7.6946   -1.1574   -2.2452 H         1 <0>         0.0000
     59 H25         1.5999    3.5888   -5.7185 H         1 <0>         0.0000
     60 H26         3.7535    2.0969    5.5965 H         1 <0>         0.0000
     61 H27         3.9215    3.7201    4.9132 H         1 <0>         0.0000
     62 H28         3.6348    3.1235   -4.7004 H         1 <0>         0.0000
     63 H29         4.4371    4.6336   -4.2587 H         1 <0>         0.0000
     64 H30         4.7955    1.2047    3.6610 H         1 <0>         0.0000
     65 H31         1.7360    4.3492   -3.3259 H         1 <0>         0.0000
@<TRIPOS>BOND
     1    1    3 ar
     2    1    6 ar
     3    1   35 1
     4    2    4 ar
     5    2    8 ar
     6    2   36 1
     7    3    9 ar
     8    3   37 1
     9    4   10 ar
    10    4   38 1
    11    5    8 ar
    12    5   11 ar
    13    5   39 1
    14    6   27 ar
    15    6   40 1
    16    7    9 ar
    17    7   27 ar
    18    7   41 1
    19    8   13 1
    20    9   25 1
    21   10   11 ar
    22   10   28 1
    23   11   29 1
    24   12   15 1
    25   12   28 am
    26   12   32 2
    27   13   30 am
    28   13   33 2
    29   14   26 1
    30   14   29 am
    31   14   34 2
    32   15   29 1
    33   15   42 1
    34   15   43 1
    35   16   18 1
    36   16   17 1
    37   16   44 1
    38   16   45 1
    39   17   21 1
    40   17   46 1
    41   17   47 1
    42   18   22 1
    43   18   48 1
    44   18   49 1
    45   19   20 1
    46   19   23 1
    47   19   50 1
    48   19   51 1
    49   20   23 1
    50   20   52 1
    51   20   53 1
    52   21   24 1
    53   21   54 1
    54   21   55 1
    55   22   24 1
    56   22   56 1
    57   22   57 1
    58   23   28 1
    59   23   58 1
    60   24   31 1
    61   24   59 1
    62   25   30 1
    63   25   60 1
    64   25   61 1
    65   26   31 1
    66   26   62 1
    67   26   63 1
    68   30   64 1
    69   31   65 1
