@<TRIPOS>MOLECULE
*****
   46    48     0     0     0
SMALL
NO_CHARGES

@<TRIPOS>ATOM
      1 C1          3.2406    1.7497   -2.9129 C.ar      1 <0>         0.0000
      2 C2          2.8486    0.8204   -1.9458 C.ar      1 <0>         0.0000
      3 C3          1.5542   -0.4820   -3.5724 C.ar      1 <0>         0.0000
      4 C4          2.7840    1.5643   -4.2178 C.ar      1 <0>         0.0000
      5 C5          2.0194   -0.2830   -2.2574 C.ar      1 <0>         0.0000
      6 C6          1.9611    0.4626   -4.4957 C.ar      1 <0>         0.0000
      7 C7          2.3151    1.6408   -6.2952 C.2       1 <0>         0.0000
      8 C8          0.6293   -2.0926   -1.2556 C.2       1 <0>         0.0000
      9 C9          1.8727   -5.7218   -0.1920 C.2       1 <0>         0.0000
     10 C10         0.8689    0.8918  -10.0426 C.2       1 <0>         0.0000
     11 C11         2.2929   -1.1446    0.0946 C.3       1 <0>         0.0000
     12 C12         1.7681   -2.4484    0.7144 C.3       1 <0>         0.0000
     13 C13         1.0253   -6.9250    0.1770 C.3       1 <0>         0.0000
     14 C14        -1.1456   -1.2342  -12.2162 C.3       1 <0>         0.0000
     15 C15         1.1075    0.7213   -8.5545 C.3       1 <0>         0.0000
     16 C16         2.7922   -3.5881    0.6125 C.3       1 <0>         0.0000
     17 C17        -0.2464   -0.0501  -11.9175 C.3       1 <0>         0.0000
     18 N1          2.9855    2.2932   -5.3964 N.2       1 <0>         0.0000
     19 N2          1.6889   -1.1975   -1.2294 N.am      1 <0>         0.0000
     20 N3          2.2128   -4.8929    0.8586 N.am      1 <0>         0.0000
     21 O1         -0.1760   -2.2905   -2.1360 O.2       1 <0>         0.0000
     22 O2          2.2379   -5.5061   -1.3431 O.2       1 <0>         0.0000
     23 O3          1.3323    1.7792  -10.7305 O.2       1 <0>         0.0000
     24 O4          1.6530    0.5077   -5.8448 O.3       1 <0>         0.0000
     25 O5          0.5950   -2.7633   -0.0577 O.3       1 <0>         0.0000
     26 O6          0.0652   -0.0892  -10.4943 O.3       1 <0>         0.0000
     27 S1          2.1997    2.0780   -7.9848 S.3       1 <0>         0.0000
     28 H1          3.8775    2.5900   -2.6551 H         1 <0>         0.0000
     29 H2          3.1925    0.9639   -0.9279 H         1 <0>         0.0000
     30 H3          0.9139   -1.3143   -3.8295 H         1 <0>         0.0000
     31 H4          1.9633   -0.2575    0.6500 H         1 <0>         0.0000
     32 H5          3.3855   -1.1341    0.0332 H         1 <0>         0.0000
     33 H6          1.4391   -2.3111    1.7478 H         1 <0>         0.0000
     34 H7          0.0079   -6.7522   -0.1870 H         1 <0>         0.0000
     35 H8          1.4182   -7.8047   -0.3365 H         1 <0>         0.0000
     36 H9          0.9864   -7.1190    1.2529 H         1 <0>         0.0000
     37 H10        -0.6441   -2.1769  -11.9787 H         1 <0>         0.0000
     38 H11        -2.0725   -1.1783  -11.6381 H         1 <0>         0.0000
     39 H12        -1.4023   -1.2386  -13.2803 H         1 <0>         0.0000
     40 H13         1.5668   -0.2520   -8.3697 H         1 <0>         0.0000
     41 H14         0.1514    0.7430   -8.0274 H         1 <0>         0.0000
     42 H15         3.6088   -3.3900    1.3179 H         1 <0>         0.0000
     43 H16         3.2100   -3.6192   -0.3963 H         1 <0>         0.0000
     44 H17        -0.7310    0.9047  -12.1376 H         1 <0>         0.0000
     45 H18         0.6920   -0.0906  -12.4768 H         1 <0>         0.0000
     46 H19         1.7656   -5.0574    1.7511 H         1 <0>         0.0000
@<TRIPOS>BOND
     1    1    2 ar
     2    1    4 ar
     3    1   28 1
     4    2    5 ar
     5    2   29 1
     6    3    5 ar
     7    3    6 ar
     8    3   30 1
     9    4    6 ar
    10    4   18 1
    11    5   19 1
    12    6   24 1
    13    7   18 2
    14    7   24 1
    15    7   27 1
    16    8   19 am
    17    8   21 2
    18    8   25 1
    19    9   13 1
    20    9   20 am
    21    9   22 2
    22   10   15 1
    23   10   23 2
    24   10   26 1
    25   11   12 1
    26   11   19 1
    27   11   31 1
    28   11   32 1
    29   12   16 1
    30   12   25 1
    31   12   33 1
    32   13   34 1
    33   13   35 1
    34   13   36 1
    35   14   17 1
    36   14   37 1
    37   14   38 1
    38   14   39 1
    39   15   27 1
    40   15   40 1
    41   15   41 1
    42   16   20 1
    43   16   42 1
    44   16   43 1
    45   17   26 1
    46   17   44 1
    47   17   45 1
    48   20   46 1
