@<TRIPOS>MOLECULE
*****
   46    48     0     0     0
SMALL
NO_CHARGES

@<TRIPOS>ATOM
      1 C1          0.8646   -1.2950    4.7068 C.ar      1 <0>         0.0000
      2 C2          0.6543   -1.8510    3.4423 C.ar      1 <0>         0.0000
      3 C3          0.9440    0.3157    2.3286 C.ar      1 <0>         0.0000
      4 C4          1.1154    0.0742    4.7833 C.ar      1 <0>         0.0000
      5 C5          0.6920   -1.0699    2.2623 C.ar      1 <0>         0.0000
      6 C6          1.1439    0.8244    3.5986 C.ar      1 <0>         0.0000
      7 C7          1.5217    2.0957    5.3234 C.2       1 <0>         0.0000
      8 C8          0.2362   -1.0907   -0.1906 C.2       1 <0>         0.0000
      9 C9          1.1538   -5.0028   -3.2609 C.2       1 <0>         0.0000
     10 C10         2.1879    4.1826    8.7212 C.2       1 <0>         0.0000
     11 C11         0.3289   -3.1613    0.9063 C.3       1 <0>         0.0000
     12 C12         0.3178   -3.3606   -0.6156 C.3       1 <0>         0.0000
     13 C13         1.0713   -4.9088   -4.7731 C.3       1 <0>         0.0000
     14 C14         2.4501    4.0958   12.3583 C.3       1 <0>         0.0000
     15 C15         1.9028    3.0190    7.7928 C.3       1 <0>         0.0000
     16 C16         1.6641   -3.8290   -1.1688 C.3       1 <0>         0.0000
     17 C17         2.4777    4.7774   11.0037 C.3       1 <0>         0.0000
     18 N1          1.3623    0.9267    5.8691 N.2       1 <0>         0.0000
     19 N2          0.4913   -1.7167    1.0189 N.am      1 <0>         0.0000
     20 N3          1.6680   -3.9025   -2.6185 N.am      1 <0>         0.0000
     21 O1          0.1953    0.0947   -0.4392 O.2       1 <0>         0.0000
     22 O2          0.8045   -6.0101   -2.6459 O.2       1 <0>         0.0000
     23 O3          2.3684    5.3322    8.3718 O.2       1 <0>         0.0000
     24 O4          1.4074    2.1372    3.9474 O.3       1 <0>         0.0000
     25 O5          0.0216   -2.0483   -1.1483 O.3       1 <0>         0.0000
     26 O6          2.2130    3.7565    9.9983 O.3       1 <0>         0.0000
     27 S1          1.8626    3.6365    6.0715 S.3       1 <0>         0.0000
     28 H1          0.8302   -1.9119    5.5993 H         1 <0>         0.0000
     29 H2          0.4511   -2.9133    3.3790 H         1 <0>         0.0000
     30 H3          0.9647    0.9344    1.4426 H         1 <0>         0.0000
     31 H4         -0.6046   -3.4945    1.3750 H         1 <0>         0.0000
     32 H5          1.1633   -3.6916    1.3758 H         1 <0>         0.0000
     33 H6         -0.4732   -4.0343   -0.9466 H         1 <0>         0.0000
     34 H7          1.6619   -5.7207   -5.2056 H         1 <0>         0.0000
     35 H8          0.0324   -5.0599   -5.0781 H         1 <0>         0.0000
     36 H9          1.4284   -3.9560   -5.1730 H         1 <0>         0.0000
     37 H10         1.4733    3.6419   12.5488 H         1 <0>         0.0000
     38 H11         3.2141    3.3154   12.4201 H         1 <0>         0.0000
     39 H12         2.6464    4.8336   13.1428 H         1 <0>         0.0000
     40 H13         0.9479    2.5566    8.0511 H         1 <0>         0.0000
     41 H14         2.6738    2.2533    7.9022 H         1 <0>         0.0000
     42 H15         1.8810   -4.8268   -0.7803 H         1 <0>         0.0000
     43 H16         2.4552   -3.1454   -0.8427 H         1 <0>         0.0000
     44 H17         3.4487    5.2306   10.7873 H         1 <0>         0.0000
     45 H18         1.7140    5.5546   10.9153 H         1 <0>         0.0000
     46 H19         1.7392   -3.0322   -3.1294 H         1 <0>         0.0000
@<TRIPOS>BOND
     1    1    2 ar
     2    1    4 ar
     3    1   28 1
     4    2    5 ar
     5    2   29 1
     6    3    5 ar
     7    3    6 ar
     8    3   30 1
     9    4    6 ar
    10    4   18 1
    11    5   19 1
    12    6   24 1
    13    7   18 2
    14    7   24 1
    15    7   27 1
    16    8   19 am
    17    8   21 2
    18    8   25 1
    19    9   13 1
    20    9   20 am
    21    9   22 2
    22   10   15 1
    23   10   23 2
    24   10   26 1
    25   11   12 1
    26   11   19 1
    27   11   31 1
    28   11   32 1
    29   12   16 1
    30   12   25 1
    31   12   33 1
    32   13   34 1
    33   13   35 1
    34   13   36 1
    35   14   17 1
    36   14   37 1
    37   14   38 1
    38   14   39 1
    39   15   27 1
    40   15   40 1
    41   15   41 1
    42   16   20 1
    43   16   42 1
    44   16   43 1
    45   17   26 1
    46   17   44 1
    47   17   45 1
    48   20   46 1
