@<TRIPOS>MOLECULE
*****
   51    52     0     0     0
SMALL
NO_CHARGES

@<TRIPOS>ATOM
      1 C1          1.5962   -5.2312   11.3310 C.ar      1 <0>         0.0000
      2 C2          3.3676   -6.5159    9.5776 C.ar      1 <0>         0.0000
      3 C3          5.1762   -6.7582   12.6503 C.ar      1 <0>         0.0000
      4 C4          2.8129   -5.7515   11.8345 C.ar      1 <0>         0.0000
      5 C5          3.7148   -6.3995   10.9460 C.ar      1 <0>         0.0000
      6 C6          1.2646   -5.3592    9.9967 C.ar      1 <0>         0.0000
      7 C7          2.1734   -6.0089    9.1051 C.ar      1 <0>         0.0000
      8 C8          3.2314   -5.6825   13.2153 C.ar      1 <0>         0.0000
      9 C9          2.4011   -6.4822   16.2024 C.3       1 <0>         0.0000
     10 C10         1.9900   -3.9716   16.2735 C.3       1 <0>         0.0000
     11 C11         0.0108   -3.7941    8.7009 C.3       1 <0>         0.0000
     12 C12        -4.7253   -6.4661    6.0775 C.3       1 <0>         0.0000
     13 C13         0.5780   -7.4530    6.2524 C.3       1 <0>         0.0000
     14 C14        -0.7218   -7.2219    7.0339 C.3       1 <0>         0.0000
     15 C15         1.7922   -7.3961    7.1750 C.3       1 <0>         0.0000
     16 C16        -1.9442   -7.0520    6.1347 C.3       1 <0>         0.0000
     17 C17         2.7418   -5.1164   15.5919 C.3       1 <0>         0.0000
     18 N1          4.9175   -6.9095   11.3680 N.ar      1 <0>         0.0000
     19 N2          4.4042   -6.1838   13.6038 N.ar      1 <0>         0.0000
     20 N3         -3.6415   -6.9983    8.4012 N.2       1 <0>         0.0000
     21 N4          2.4479   -5.0799   14.1538 N.pl3     1 <0>         0.0000
     22 O1         -2.8944   -4.7818    7.1127 O.2       1 <0>         0.0000
     23 O2          0.0260   -4.9517    9.5625 O.3       1 <0>         0.0000
     24 O3          1.7974   -6.0919    7.7908 O.3       1 <0>         0.0000
     25 S1         -3.2711   -6.2239    7.1096 S.o       1 <0>         0.0000
     26 H1          0.8707   -4.7332   11.9680 H         1 <0>         0.0000
     27 H2          4.0681   -7.0094    8.9112 H         1 <0>         0.0000
     28 H3          6.1294   -7.1492   13.0054 H         1 <0>         0.0000
     29 H4          1.3273   -6.6888   16.1203 H         1 <0>         0.0000
     30 H5          2.9517   -7.2743   15.6892 H         1 <0>         0.0000
     31 H6          2.6720   -6.5066   17.2636 H         1 <0>         0.0000
     32 H7          0.9042   -4.0923   16.1668 H         1 <0>         0.0000
     33 H8          2.2732   -3.0051   15.8456 H         1 <0>         0.0000
     34 H9          2.2137   -3.9550   17.3442 H         1 <0>         0.0000
     35 H10        -1.0162   -3.6986    8.3467 H         1 <0>         0.0000
     36 H11         0.6824   -3.9332    7.8493 H         1 <0>         0.0000
     37 H12         0.3084   -2.9046    9.2697 H         1 <0>         0.0000
     38 H13        -5.5334   -5.9150    6.5601 H         1 <0>         0.0000
     39 H14        -4.5149   -6.0526    5.0900 H         1 <0>         0.0000
     40 H15        -4.9617   -7.5290    6.0315 H         1 <0>         0.0000
     41 H16         0.5705   -8.4221    5.7381 H         1 <0>         0.0000
     42 H17         0.6907   -6.6801    5.4830 H         1 <0>         0.0000
     43 H18        -0.5895   -6.3228    7.6388 H         1 <0>         0.0000
     44 H19        -0.8954   -8.0502    7.7296 H         1 <0>         0.0000
     45 H20         1.7341   -8.1642    7.9545 H         1 <0>         0.0000
     46 H21         2.7230   -7.5394    6.6138 H         1 <0>         0.0000
     47 H22        -1.7410   -6.3931    5.2858 H         1 <0>         0.0000
     48 H23        -2.3402   -8.0074    5.7771 H         1 <0>         0.0000
     49 H24         3.8175   -4.9528   15.6864 H         1 <0>         0.0000
     50 H25        -2.9313   -6.8420    9.1207 H         1 <0>         0.0000
     51 H26         1.4910   -4.8792   13.8980 H         1 <0>         0.0000
@<TRIPOS>BOND
     1    1    4 ar
     2    1    6 ar
     3    1   26 1
     4    2    5 ar
     5    2    7 ar
     6    2   27 1
     7    3   18 ar
     8    3   19 ar
     9    3   28 1
    10    4    5 ar
    11    4    8 ar
    12    5   18 ar
    13    6    7 ar
    14    6   23 1
    15    7   24 1
    16    8   19 ar
    17    8   21 1
    18    9   17 1
    19    9   29 1
    20    9   30 1
    21    9   31 1
    22   10   17 1
    23   10   32 1
    24   10   33 1
    25   10   34 1
    26   11   23 1
    27   11   35 1
    28   11   36 1
    29   11   37 1
    30   12   25 1
    31   12   38 1
    32   12   39 1
    33   12   40 1
    34   13   14 1
    35   13   15 1
    36   13   41 1
    37   13   42 1
    38   14   16 1
    39   14   43 1
    40   14   44 1
    41   15   24 1
    42   15   45 1
    43   15   46 1
    44   16   25 1
    45   16   47 1
    46   16   48 1
    47   17   21 1
    48   17   49 1
    49   20   25 2
    50   20   50 1
    51   21   51 1
    52   22   25 2
