@<TRIPOS>MOLECULE
*****
   53    56     0     0     0
SMALL
NO_CHARGES

@<TRIPOS>ATOM
      1 C1          1.7248    1.6108   -4.7178 C.1       1 <0>         0.0000
      2 C2          0.3039    2.2274    3.0543 C.ar      1 <0>         0.0000
      3 C3          0.1858    2.1883    1.6407 C.ar      1 <0>         0.0000
      4 C4          0.4448    1.0760    3.8325 C.ar      1 <0>         0.0000
      5 C5          0.3300   -0.1890    1.7561 C.ar      1 <0>         0.0000
      6 C6          0.2051    0.9669    0.9781 C.ar      1 <0>         0.0000
      7 C7          0.3626   -1.5480    1.3193 C.2       1 <0>         0.0000
      8 C8          0.4493   -0.1549    3.1595 C.ar      1 <0>         0.0000
      9 C9          0.4985   -2.3177    2.4586 C.2       1 <0>         0.0000
     10 C10         0.1690   -1.8629   -0.1453 C.3       1 <0>         0.0000
     11 C11        -0.3088    1.7774   -1.4444 C.3       1 <0>         0.0000
     12 C12         0.1100   -0.1119   -3.1031 C.3       1 <0>         0.0000
     13 C13         0.2019    0.6819   -0.5114 C.3       1 <0>         0.0000
     14 C14         0.0182    1.4150   -2.9165 C.3       1 <0>         0.0000
     15 C15        -0.5783   -0.6470   -0.7345 C.3       1 <0>         0.0000
     16 C16        -2.5166   -3.6244   -4.3458 C.3       1 <0>         0.0000
     17 C17         1.2662   -5.4464    4.2040 C.3       1 <0>         0.0000
     18 C18         1.3376    2.0739   -3.3787 C.3       1 <0>         0.0000
     19 C19         0.5406   -3.8014    2.6615 C.3       1 <0>         0.0000
     20 C20        -2.0881   -2.1945   -3.9893 C.3       1 <0>         0.0000
     21 C21        -1.2931   -2.1817   -2.6846 C.3       1 <0>         0.0000
     22 N1          1.9710    1.1722   -5.7657 N.1       1 <0>         0.0000
     23 N2          0.5419   -1.4769    3.5637 N.pl3     1 <0>         0.0000
     24 N3         -0.9276   -0.7809   -2.2371 N.4       1 <0>         0.0000
     25 O1          1.2433   -4.0609    3.8646 O.3       1 <0>         0.0000
     26 H1          0.2897    3.1934    3.5501 H         1 <0>         0.0000
     27 H2          0.0903    3.1257    1.0995 H         1 <0>         0.0000
     28 H3          0.5403    1.1462    4.9123 H         1 <0>         0.0000
     29 H4          1.1272   -2.0016   -0.6654 H         1 <0>         0.0000
     30 H5         -0.4080   -2.7816   -0.2750 H         1 <0>         0.0000
     31 H6         -1.3872    1.9228   -1.3053 H         1 <0>         0.0000
     32 H7          0.1537    2.7342   -1.1901 H         1 <0>         0.0000
     33 H8         -0.0653   -0.3947   -4.1387 H         1 <0>         0.0000
     34 H9          1.0784   -0.5170   -2.8046 H         1 <0>         0.0000
     35 H10         1.2491    0.4831   -0.7808 H         1 <0>         0.0000
     36 H11        -0.7791    1.7863   -3.5696 H         1 <0>         0.0000
     37 H12        -1.5527   -0.5701   -0.2431 H         1 <0>         0.0000
     38 H13        -1.6479   -4.2748   -4.4885 H         1 <0>         0.0000
     39 H14        -3.1460   -4.0606   -3.5637 H         1 <0>         0.0000
     40 H15        -3.0894   -3.6257   -5.2760 H         1 <0>         0.0000
     41 H16         1.8206   -5.5335    5.1392 H         1 <0>         0.0000
     42 H17         1.7731   -6.0339    3.4265 H         1 <0>         0.0000
     43 H18         0.2487   -5.8362    4.3452 H         1 <0>         0.0000
     44 H19         2.1500    1.8432   -2.6803 H         1 <0>         0.0000
     45 H20         1.2227    3.1614   -3.3944 H         1 <0>         0.0000
     46 H21        -0.4834   -4.2076    2.7294 H         1 <0>         0.0000
     47 H22         1.0311   -4.2854    1.8030 H         1 <0>         0.0000
     48 H23        -2.9791   -1.5622   -3.8786 H         1 <0>         0.0000
     49 H24        -1.4986   -1.7798   -4.8121 H         1 <0>         0.0000
     50 H25        -1.8925   -2.6142   -1.8812 H         1 <0>         0.0000
     51 H26        -0.3628   -2.7467   -2.7649 H         1 <0>         0.0000
     52 H27         0.7566   -1.8215    4.4915 H         1 <0>         0.0000
     53 H28        -1.7837   -0.2317   -2.3584 H         1 <0>         0.0000
@<TRIPOS>BOND
     1    1   18 1
     2    1   22 3
     3    2    3 ar
     4    2    4 ar
     5    2   26 1
     6    3    6 ar
     7    3   27 1
     8    4    8 ar
     9    4   28 1
    10    5    6 ar
    11    5    7 1
    12    5    8 ar
    13    6   13 1
    14    7    9 2
    15    7   10 1
    16    8   23 1
    17    9   19 1
    18    9   23 1
    19   10   15 1
    20   10   29 1
    21   10   30 1
    22   11   13 1
    23   11   14 1
    24   11   31 1
    25   11   32 1
    26   12   14 1
    27   12   24 1
    28   12   33 1
    29   12   34 1
    30   13   15 1
    31   13   35 1
    32   14   18 1
    33   14   36 1
    34   15   24 1
    35   15   37 1
    36   16   20 1
    37   16   38 1
    38   16   39 1
    39   16   40 1
    40   17   25 1
    41   17   41 1
    42   17   42 1
    43   17   43 1
    44   18   44 1
    45   18   45 1
    46   19   25 1
    47   19   46 1
    48   19   47 1
    49   20   21 1
    50   20   48 1
    51   20   49 1
    52   21   24 1
    53   21   50 1
    54   21   51 1
    55   23   52 1
    56   24   53 1
