@<TRIPOS>MOLECULE
*****
   65    69     0     0     0
SMALL
NO_CHARGES

@<TRIPOS>ATOM
      1 C1         -2.1034   -2.6997   -4.1157 C.ar      1 <0>         0.0000
      2 C2          0.3506   -2.9050   -4.1201 C.ar      1 <0>         0.0000
      3 C3         -1.0498   -4.1734   -5.6563 C.ar      1 <0>         0.0000
      4 C4         -0.8262   -2.3403   -3.6102 C.ar      1 <0>         0.0000
      5 C5         -2.2292   -3.6212   -5.1457 C.ar      1 <0>         0.0000
      6 C6         -0.9091   -5.1468   -6.6895 C.2       1 <0>         0.0000
      7 C7          0.2238   -3.8392   -5.1573 C.ar      1 <0>         0.0000
      8 C8          0.4408   -5.4021   -6.8116 C.2       1 <0>         0.0000
      9 C9         -6.3988   -1.4887   -8.2938 C.2       1 <0>         0.0000
     10 C10        -2.1465   -5.6536   -7.3741 C.3       1 <0>         0.0000
     11 C11        -3.9885   -3.0650   -6.8619 C.3       1 <0>         0.0000
     12 C12        -5.1407   -4.9671   -8.0540 C.3       1 <0>         0.0000
     13 C13        -2.6621   -0.2829   -0.8086 C.3       1 <0>         0.0000
     14 C14        -1.8891    0.8784   -1.4255 C.3       1 <0>         0.0000
     15 C15        -3.5160   -4.0735   -5.7992 C.3       1 <0>         0.0000
     16 C16        -0.7103   -1.3214   -2.5040 C.3       1 <0>         0.0000
     17 C17        -3.3734   -5.4939   -6.4179 C.3       1 <0>         0.0000
     18 C18        -5.2881   -3.5417   -7.5172 C.3       1 <0>         0.0000
     19 C19         1.1824   -6.3281   -7.7205 C.3       1 <0>         0.0000
     20 C20        -6.4281    1.8136   -8.5894 C.3       1 <0>         0.0000
     21 C21        -6.8992   -1.6519  -11.5483 C.3       1 <0>         0.0000
     22 C22        -4.7371   -7.2670   -7.4246 C.3       1 <0>         0.0000
     23 C23        -7.3032    0.6441   -9.0497 C.3       1 <0>         0.0000
     24 C24        -6.0104   -0.7630  -10.6683 C.3       1 <0>         0.0000
     25 N1          1.1279   -4.5998   -5.8859 N.pl3     1 <0>         0.0000
     26 N2         -4.6626   -5.8722   -7.0143 N.3       1 <0>         0.0000
     27 N3         -5.7254   -2.6651   -8.6033 N.am      1 <0>         0.0000
     28 N4         -6.5283   -0.5703   -9.3176 N.am      1 <0>         0.0000
     29 O1         -6.8836   -1.2938   -7.1736 O.2       1 <0>         0.0000
     30 S1         -1.6335   -1.7944   -0.9472 S.3       1 <0>         0.0000
     31 S2         -1.3149    0.3311   -3.0695 S.3       1 <0>         0.0000
     32 H1         -2.9847   -2.2421   -3.6744 H         1 <0>         0.0000
     33 H2          1.3182   -2.6192   -3.7136 H         1 <0>         0.0000
     34 H3         -2.3239   -5.0987   -8.3037 H         1 <0>         0.0000
     35 H4         -2.0476   -6.7068   -7.6569 H         1 <0>         0.0000
     36 H5         -4.1475   -2.0846   -6.4036 H         1 <0>         0.0000
     37 H6         -3.2090   -2.9408   -7.6261 H         1 <0>         0.0000
     38 H7         -6.1195   -5.3195   -8.3954 H         1 <0>         0.0000
     39 H8         -4.4805   -4.9608   -8.9465 H         1 <0>         0.0000
     40 H9         -2.8516   -0.1143    0.2561 H         1 <0>         0.0000
     41 H10        -3.6151   -0.4280   -1.3234 H         1 <0>         0.0000
     42 H11        -2.5315    1.7518   -1.5775 H         1 <0>         0.0000
     43 H12        -1.0419    1.1643   -0.7957 H         1 <0>         0.0000
     44 H13        -4.3040   -4.1468   -5.0407 H         1 <0>         0.0000
     45 H14         0.3361   -1.2208   -2.2111 H         1 <0>         0.0000
     46 H15        -3.2070   -6.1847   -5.5823 H         1 <0>         0.0000
     47 H16        -6.0824   -3.5320   -6.7696 H         1 <0>         0.0000
     48 H17         1.8371   -5.7847   -8.4136 H         1 <0>         0.0000
     49 H18         1.8070   -7.0360   -7.1612 H         1 <0>         0.0000
     50 H19         0.4756   -6.9081   -8.3186 H         1 <0>         0.0000
     51 H20        -5.9236    1.5564   -7.6540 H         1 <0>         0.0000
     52 H21        -5.6660    2.0613   -9.3370 H         1 <0>         0.0000
     53 H22        -7.0387    2.7076   -8.4193 H         1 <0>         0.0000
     54 H23        -7.0033   -2.6509  -11.1158 H         1 <0>         0.0000
     55 H24        -7.9004   -1.2188  -11.6394 H         1 <0>         0.0000
     56 H25        -6.4748   -1.7489  -12.5541 H         1 <0>         0.0000
     57 H26        -4.3829   -7.9082   -6.6107 H         1 <0>         0.0000
     58 H27        -4.1466   -7.5043   -8.3284 H         1 <0>         0.0000
     59 H28        -5.7799   -7.5309   -7.6314 H         1 <0>         0.0000
     60 H29        -7.8457    0.9065   -9.9654 H         1 <0>         0.0000
     61 H30        -8.0417    0.4079   -8.2830 H         1 <0>         0.0000
     62 H31        -5.9141    0.2277  -11.1227 H         1 <0>         0.0000
     63 H32        -4.9868   -1.1568  -10.6337 H         1 <0>         0.0000
     64 H33         2.1283   -4.6176   -5.7476 H         1 <0>         0.0000
     65 H34        -5.1096   -2.6505   -9.4057 H         1 <0>         0.0000
@<TRIPOS>BOND
     1    1    4 ar
     2    1    5 ar
     3    1   32 1
     4    2    4 ar
     5    2    7 ar
     6    2   33 1
     7    3    5 ar
     8    3    6 1
     9    3    7 ar
    10    4   16 1
    11    5   15 1
    12    6    8 2
    13    6   10 1
    14    7   25 1
    15    8   19 1
    16    8   25 1
    17    9   27 am
    18    9   28 am
    19    9   29 2
    20   10   17 1
    21   10   34 1
    22   10   35 1
    23   11   15 1
    24   11   18 1
    25   11   36 1
    26   11   37 1
    27   12   18 1
    28   12   26 1
    29   12   38 1
    30   12   39 1
    31   13   14 1
    32   13   30 1
    33   13   40 1
    34   13   41 1
    35   14   31 1
    36   14   42 1
    37   14   43 1
    38   15   17 1
    39   15   44 1
    40   16   31 1
    41   16   30 1
    42   16   45 1
    43   17   26 1
    44   17   46 1
    45   18   27 1
    46   18   47 1
    47   19   48 1
    48   19   49 1
    49   19   50 1
    50   20   23 1
    51   20   51 1
    52   20   52 1
    53   20   53 1
    54   21   24 1
    55   21   54 1
    56   21   55 1
    57   21   56 1
    58   22   26 1
    59   22   57 1
    60   22   58 1
    61   22   59 1
    62   23   28 1
    63   23   60 1
    64   23   61 1
    65   24   28 1
    66   24   62 1
    67   24   63 1
    68   25   64 1
    69   27   65 1
