@<TRIPOS>MOLECULE
*****
   40    42     0     0     0
SMALL
NO_CHARGES

@<TRIPOS>ATOM
      1 C1          2.8102   -2.7187    0.5863 C.ar      1 <0>         0.0000
      2 C2          4.1215    0.5643    1.3461 C.2       1 <0>         0.0000
      3 C3          2.8297   -3.3464    1.8270 C.ar      1 <0>         0.0000
      4 C4          3.9438    0.5999   -0.0004 C.2       1 <0>         0.0000
      5 C5          3.6527   -0.7367    1.7839 C.ar      1 <0>         0.0000
      6 C6          3.2453   -1.3929    0.6126 C.ar      1 <0>         0.0000
      7 C7          3.5664   -1.4724    3.0043 C.ar      1 <0>         0.0000
      8 C8         -2.6622   -0.1440    4.8338 C.3       1 <0>         0.0000
      9 C9         -2.3278    1.2576    5.4184 C.3       1 <0>         0.0000
     10 C10        -1.3529   -0.5927    4.1664 C.3       1 <0>         0.0000
     11 C11        -0.8302    1.4575    5.1103 C.3       1 <0>         0.0000
     12 C12         3.9702   -1.8551    5.3679 C.3       1 <0>         0.0000
     13 C13         2.1162    0.5495    5.2219 C.3       1 <0>         0.0000
     14 C14         1.0023    0.0131    4.3196 C.3       1 <0>         0.0000
     15 C15         3.5114    0.4350    4.5846 C.3       1 <0>         0.0000
     16 N1          3.1790   -2.7565    2.9881 N.ar      1 <0>         0.0000
     17 N2         -0.3138    0.0957    4.9388 N.3       1 <0>         0.0000
     18 N3          3.9151   -0.9325    4.2357 N.pl3     1 <0>         0.0000
     19 O1          3.4037   -0.5781   -0.4754 O.3       1 <0>         0.0000
     20 H1          2.5080   -3.2256   -0.3231 H         1 <0>         0.0000
     21 H2          4.5604    1.3585    1.9324 H         1 <0>         0.0000
     22 H3          2.5363   -4.3917    1.9073 H         1 <0>         0.0000
     23 H4          4.1465    1.3516   -0.7500 H         1 <0>         0.0000
     24 H5         -2.9351   -0.8363    5.6347 H         1 <0>         0.0000
     25 H6         -3.4915   -0.1183    4.1216 H         1 <0>         0.0000
     26 H7         -2.9320    2.0521    4.9715 H         1 <0>         0.0000
     27 H8         -2.5066    1.2784    6.4966 H         1 <0>         0.0000
     28 H9         -1.1974   -1.6759    4.1947 H         1 <0>         0.0000
     29 H10        -1.3363   -0.2786    3.1040 H         1 <0>         0.0000
     30 H11        -0.7036    2.0484    4.1810 H         1 <0>         0.0000
     31 H12        -0.3018    1.9828    5.9110 H         1 <0>         0.0000
     32 H13         4.4283   -1.3297    6.2112 H         1 <0>         0.0000
     33 H14         4.5815   -2.7202    5.1087 H         1 <0>         0.0000
     34 H15         2.9823   -2.2252    5.6704 H         1 <0>         0.0000
     35 H16         2.0817    0.0208    6.1802 H         1 <0>         0.0000
     36 H17         1.9486    1.6103    5.4442 H         1 <0>         0.0000
     37 H18         1.0235    0.5484    3.3480 H         1 <0>         0.0000
     38 H19         1.1965   -1.0407    4.0981 H         1 <0>         0.0000
     39 H20         4.2598    0.8425    5.2745 H         1 <0>         0.0000
     40 H21         3.5387    1.0520    3.6890 H         1 <0>         0.0000
@<TRIPOS>BOND
     1    1    3 ar
     2    1    6 ar
     3    1   20 1
     4    2    4 2
     5    2    5 1
     6    2   21 1
     7    3   16 ar
     8    3   22 1
     9    4   19 1
    10    4   23 1
    11    5    6 ar
    12    5    7 ar
    13    6   19 1
    14    7   16 ar
    15    7   18 1
    16    8    9 1
    17    8   10 1
    18    8   24 1
    19    8   25 1
    20    9   11 1
    21    9   26 1
    22    9   27 1
    23   10   17 1
    24   10   28 1
    25   10   29 1
    26   11   17 1
    27   11   30 1
    28   11   31 1
    29   12   18 1
    30   12   32 1
    31   12   33 1
    32   12   34 1
    33   13   14 1
    34   13   15 1
    35   13   35 1
    36   13   36 1
    37   14   17 1
    38   14   37 1
    39   14   38 1
    40   15   18 1
    41   15   39 1
    42   15   40 1
