@<TRIPOS>MOLECULE
*****
   40    41     0     0     0
SMALL
NO_CHARGES

@<TRIPOS>ATOM
      1 C1          7.3654   -4.5389    3.5787 C.ar      1 <0>         0.0000
      2 C2          7.1784   -3.2299    4.0228 C.ar      1 <0>         0.0000
      3 C3          6.9253   -4.9145    2.3096 C.ar      1 <0>         0.0000
      4 C4          6.5513   -2.2964    3.1976 C.ar      1 <0>         0.0000
      5 C5          6.2981   -3.9810    1.4844 C.ar      1 <0>         0.0000
      6 C6          6.1111   -2.6720    1.9284 C.ar      1 <0>         0.0000
      7 C7         -0.4061    1.6487    1.2623 C.3       1 <0>         0.0000
      8 C8          0.7239    1.6308    0.2149 C.3       1 <0>         0.0000
      9 C9         -0.9823    0.3883    0.5885 C.3       1 <0>         0.0000
     10 C10         0.4314    0.1173   -0.0058 C.3       1 <0>         0.0000
     11 C11        -0.3597   -1.5643   -1.6776 C.3       1 <0>         0.0000
     12 C12         0.4182   -0.3052   -1.4709 C.3       1 <0>         0.0000
     13 C13         1.2973   -0.8179    0.8388 C.3       1 <0>         0.0000
     14 C14         2.7593   -0.6806    0.4612 C.3       1 <0>         0.0000
     15 C15         3.6071   -1.6404    1.2805 C.3       1 <0>         0.0000
     16 O1          5.7820   -0.1760    1.2988 O.2       1 <0>         0.0000
     17 O2          5.4944   -1.9209   -0.4952 O.2       1 <0>         0.0000
     18 S1          5.3190   -1.4881    0.8806 S.o2      1 <0>         0.0000
     19 H1          7.8544   -5.2651    4.2215 H         1 <0>         0.0000
     20 H2          7.5219   -2.9377    5.0106 H         1 <0>         0.0000
     21 H3          7.0716   -5.9333    1.9631 H         1 <0>         0.0000
     22 H4          6.4119   -1.2791    3.5531 H         1 <0>         0.0000
     23 H5          5.9598   -4.2839    0.4970 H         1 <0>         0.0000
     24 H6         -1.0518    2.5306    1.2460 H         1 <0>         0.0000
     25 H7         -0.0611    1.4836    2.2891 H         1 <0>         0.0000
     26 H8          0.5141    2.2663   -0.6539 H         1 <0>         0.0000
     27 H9          1.7182    1.8829    0.5950 H         1 <0>         0.0000
     28 H10        -1.3750   -0.3696    1.2722 H         1 <0>         0.0000
     29 H11        -1.7537    0.6155   -0.1574 H         1 <0>         0.0000
     30 H12         0.0759   -2.3705   -1.0757 H         1 <0>         0.0000
     31 H13        -0.3320   -1.8721   -2.7283 H         1 <0>         0.0000
     32 H14        -1.4019   -1.4339   -1.3675 H         1 <0>         0.0000
     33 H15        -0.0187    0.4971   -2.0726 H         1 <0>         0.0000
     34 H16         1.4472   -0.4516   -1.8121 H         1 <0>         0.0000
     35 H17         1.1335   -0.5588    1.8811 H         1 <0>         0.0000
     36 H18         0.9405   -1.8303    0.6716 H         1 <0>         0.0000
     37 H19         3.1007    0.3495    0.6245 H         1 <0>         0.0000
     38 H20         2.8982   -0.8816   -0.6086 H         1 <0>         0.0000
     39 H21         3.5120   -1.4398    2.3518 H         1 <0>         0.0000
     40 H22         3.3277   -2.6809    1.0903 H         1 <0>         0.0000
@<TRIPOS>BOND
     1    1    3 ar
     2    1    2 ar
     3    1   19 1
     4    2    4 ar
     5    2   20 1
     6    3    5 ar
     7    3   21 1
     8    4    6 ar
     9    4   22 1
    10    5    6 ar
    11    5   23 1
    12    6   18 1
    13    7    9 1
    14    7    8 1
    15    7   24 1
    16    7   25 1
    17    8   10 1
    18    8   26 1
    19    8   27 1
    20    9   10 1
    21    9   28 1
    22    9   29 1
    23   10   12 1
    24   10   13 1
    25   11   12 1
    26   11   30 1
    27   11   31 1
    28   11   32 1
    29   12   33 1
    30   12   34 1
    31   13   14 1
    32   13   35 1
    33   13   36 1
    34   14   15 1
    35   14   37 1
    36   14   38 1
    37   15   18 1
    38   15   39 1
    39   15   40 1
    40   16   18 2
    41   17   18 2
