@<TRIPOS>MOLECULE
*****
   32    33     0     0     0
SMALL
NO_CHARGES

@<TRIPOS>ATOM
      1 C1          0.0978   -0.0885   -4.2714 C.ar      1 <0>         0.0000
      2 C2          0.8861   -1.0368   -4.9254 C.ar      1 <0>         0.0000
      3 C3         -0.6785   -0.4749   -3.1755 C.ar      1 <0>         0.0000
      4 C4          0.8809   -2.3615   -4.4779 C.ar      1 <0>         0.0000
      5 C5         -0.6788   -1.7955   -2.7152 C.ar      1 <0>         0.0000
      6 C6          0.1080   -2.7603   -3.3795 C.ar      1 <0>         0.0000
      7 C7         -3.7641   -1.3437   -1.8170 C.2       1 <0>         0.0000
      8 C8         -0.8036   -0.7159    0.3098 C.3       1 <0>         0.0000
      9 C9         -0.6250   -2.1566   -0.1914 C.3       1 <0>         0.0000
     10 C10        -2.2795   -0.4170    0.0080 C.3       1 <0>         0.0000
     11 C11        -1.4775   -2.1927   -1.4815 C.3       1 <0>         0.0000
     12 C12         0.1095   -4.2100   -2.9469 C.3       1 <0>         0.0000
     13 C13        -4.8439   -0.3721   -1.3683 C.3       1 <0>         0.0000
     14 N1         -2.5648   -1.2559   -1.1644 N.am      1 <0>         0.0000
     15 O1         -3.9514   -2.1589   -2.7224 O.2       1 <0>         0.0000
     16 H1          0.0798    0.9429   -4.6147 H         1 <0>         0.0000
     17 H2          1.4928   -0.7537   -5.7818 H         1 <0>         0.0000
     18 H3         -1.3116    0.2574   -2.6825 H         1 <0>         0.0000
     19 H4          1.4845   -3.1037   -4.9960 H         1 <0>         0.0000
     20 H5         -0.5665   -0.5948    1.3699 H         1 <0>         0.0000
     21 H6         -0.1596   -0.0408   -0.2613 H         1 <0>         0.0000
     22 H7          0.4196   -2.4144   -0.3765 H         1 <0>         0.0000
     23 H8         -1.0320   -2.8665    0.5376 H         1 <0>         0.0000
     24 H9         -2.9192   -0.7002    0.8547 H         1 <0>         0.0000
     25 H10        -2.4543    0.6432   -0.2034 H         1 <0>         0.0000
     26 H11        -1.9161   -3.1787   -1.6442 H         1 <0>         0.0000
     27 H12         0.4127   -4.3312   -1.9011 H         1 <0>         0.0000
     28 H13        -0.8881   -4.6537   -3.0464 H         1 <0>         0.0000
     29 H14         0.7968   -4.7979   -3.5607 H         1 <0>         0.0000
     30 H15        -4.5325    0.6649   -1.5342 H         1 <0>         0.0000
     31 H16        -5.0666   -0.4818   -0.3017 H         1 <0>         0.0000
     32 H17        -5.7457   -0.5714   -1.9471 H         1 <0>         0.0000
@<TRIPOS>BOND
     1    1    2 ar
     2    1    3 ar
     3    1   16 1
     4    2    4 ar
     5    2   17 1
     6    3    5 ar
     7    3   18 1
     8    4    6 ar
     9    4   19 1
    10    5    6 ar
    11    5   11 1
    12    6   12 1
    13    7   13 1
    14    7   14 am
    15    7   15 2
    16    8    9 1
    17    8   10 1
    18    8   20 1
    19    8   21 1
    20    9   11 1
    21    9   22 1
    22    9   23 1
    23   10   14 1
    24   10   24 1
    25   10   25 1
    26   11   14 1
    27   11   26 1
    28   12   27 1
    29   12   28 1
    30   12   29 1
    31   13   30 1
    32   13   31 1
    33   13   32 1
