@<TRIPOS>MOLECULE
*****
   26    27     0     0     0
SMALL
NO_CHARGES

@<TRIPOS>ATOM
      1 C1         -0.5024   -1.9273    0.6261 C.ar      1 <0>         0.0000
      2 C2          0.3839   -0.9473    0.1142 C.ar      1 <0>         0.0000
      3 C3         -0.1144   -3.2504    0.6949 C.ar      1 <0>         0.0000
      4 C4          1.6428   -1.3086   -0.3226 C.ar      1 <0>         0.0000
      5 C5          1.6052   -5.0130    0.3313 C.ar      1 <0>         0.0000
      6 C6          2.8574   -5.3640   -0.1027 C.ar      1 <0>         0.0000
      7 C7          1.1734   -3.6565    0.2543 C.ar      1 <0>         0.0000
      8 C8          2.0607   -2.6645   -0.2670 C.ar      1 <0>         0.0000
      9 C9          3.7475   -4.4018   -0.6631 C.ar      1 <0>         0.0000
     10 C10         3.3566   -3.0641   -0.7240 C.ar      1 <0>         0.0000
     11 C11         5.0917   -4.8845   -1.0912 C.2       1 <0>         0.0000
     12 C12         6.9650   -4.6562   -2.6623 C.3       1 <0>         0.0000
     13 N1          5.6860   -4.1641   -2.1391 N.am      1 <0>         0.0000
     14 O1          5.6704   -5.8212   -0.5516 O.2       1 <0>         0.0000
     15 O2          4.1591   -2.0569   -1.1786 O.3       1 <0>         0.0000
     16 H1         -1.4912   -1.6321    0.9680 H         1 <0>         0.0000
     17 H2          0.0692    0.0918    0.0676 H         1 <0>         0.0000
     18 H3         -0.7925   -4.0022    1.0919 H         1 <0>         0.0000
     19 H4          2.3283   -0.5651   -0.7143 H         1 <0>         0.0000
     20 H5          0.9333   -5.7615    0.7427 H         1 <0>         0.0000
     21 H6          3.2104   -6.3882   -0.0326 H         1 <0>         0.0000
     22 H7          7.3286   -3.9519   -3.4139 H         1 <0>         0.0000
     23 H8          6.8726   -5.6544   -3.1046 H         1 <0>         0.0000
     24 H9          7.6849   -4.7129   -1.8452 H         1 <0>         0.0000
     25 H10         5.0234   -3.8784   -2.8559 H         1 <0>         0.0000
     26 H11         5.0397   -2.4319   -1.3911 H         1 <0>         0.0000
@<TRIPOS>BOND
     1    1    2 ar
     2    1    3 ar
     3    1   16 1
     4    2    4 ar
     5    2   17 1
     6    3    7 ar
     7    3   18 1
     8    4    8 ar
     9    4   19 1
    10    5    6 ar
    11    5    7 ar
    12    5   20 1
    13    6    9 ar
    14    6   21 1
    15    7    8 ar
    16    8   10 ar
    17    9   10 ar
    18    9   11 1
    19   10   15 1
    20   11   13 am
    21   11   14 2
    22   12   13 1
    23   12   22 1
    24   12   23 1
    25   12   24 1
    26   13   25 1
    27   15   26 1
