@<TRIPOS>MOLECULE
*****
   23    23     0     0     0
SMALL
NO_CHARGES

@<TRIPOS>ATOM
      1 C1          1.5967   -1.8621   -1.0944 C.2       1 <0>         0.0000
      2 C2          2.0716    0.2181   -0.8289 C.2       1 <0>         0.0000
      3 C3          0.7866    0.0463   -0.3101 C.2       1 <0>         0.0000
      4 C4          2.9278    1.4428   -0.8771 C.2       1 <0>         0.0000
      5 C5         -0.2459    0.8245    0.4270 C.2       1 <0>         0.0000
      6 C6          3.0424    3.8090   -1.5276 C.3       1 <0>         0.0000
      7 C7         -0.9508    2.9441    1.4228 C.3       1 <0>         0.0000
      8 N1          2.5562   -0.9780   -1.3083 N.2       1 <0>         0.0000
      9 N2          0.5161   -1.2929   -0.4947 N.pl3     1 <0>         0.0000
     10 N3          2.2615    2.5936   -1.2877 N.am      1 <0>         0.0000
     11 N4          0.0046    2.1324    0.6804 N.am      1 <0>         0.0000
     12 O1          4.1036    1.4509   -0.5428 O.2       1 <0>         0.0000
     13 O2         -1.2811    0.2514    0.7972 O.2       1 <0>         0.0000
     14 H1          1.6382   -2.9111   -1.3582 H         1 <0>         0.0000
     15 H2          2.3559    4.6384   -1.7135 H         1 <0>         0.0000
     16 H3          3.7225    3.6974   -2.3798 H         1 <0>         0.0000
     17 H4          3.6419    4.0280   -0.6432 H         1 <0>         0.0000
     18 H5         -1.8955    3.0417    0.8779 H         1 <0>         0.0000
     19 H6         -0.5190    3.9349    1.5764 H         1 <0>         0.0000
     20 H7         -1.1655    2.4906    2.3943 H         1 <0>         0.0000
     21 H8         -0.3458   -1.7190   -0.1671 H         1 <0>         0.0000
     22 H9          1.4886    2.4281   -1.9243 H         1 <0>         0.0000
     23 H10         0.8454    2.5547    0.2984 H         1 <0>         0.0000
@<TRIPOS>BOND
     1    1    8 2
     2    1    9 1
     3    1   14 1
     4    2    3 2
     5    2    4 1
     6    2    8 1
     7    3    5 1
     8    3    9 1
     9    4   10 am
    10    4   12 2
    11    5   11 am
    12    5   13 2
    13    6   10 1
    14    6   15 1
    15    6   16 1
    16    6   17 1
    17    7   11 1
    18    7   18 1
    19    7   19 1
    20    7   20 1
    21    9   21 1
    22   10   22 1
    23   11   23 1
