@<TRIPOS>MOLECULE
*****
   26    26     0     0     0
SMALL
NO_CHARGES

@<TRIPOS>ATOM
      1 C1          1.9666   -0.7413   -0.1075 C.ar      1 <0>         0.0000
      2 C2          2.5636    0.1160    0.8240 C.ar      1 <0>         0.0000
      3 C3          1.2812   -1.8755    0.3392 C.ar      1 <0>         0.0000
      4 C4          2.4670   -0.1618    2.1900 C.ar      1 <0>         0.0000
      5 C5          1.1855   -2.1513    1.7074 C.ar      1 <0>         0.0000
      6 C6          1.7745   -1.2934    2.6434 C.ar      1 <0>         0.0000
      7 C7          0.3165   -1.3601    7.0852 C.2       1 <0>         0.0000
      8 C8          0.2609   -0.8687    8.5187 C.3       1 <0>         0.0000
      9 C9          0.4573   -0.6858    4.6831 C.3       1 <0>         0.0000
     10 C10         1.6237   -1.5458    4.1333 C.3       1 <0>         0.0000
     11 N1          0.5124   -0.4163    6.1253 N.am      1 <0>         0.0000
     12 O1          0.1875   -2.5620    6.8170 O.2       1 <0>         0.0000
     13 O2          1.4092   -2.9293    4.3491 O.3       1 <0>         0.0000
     14 H1          2.0433   -0.5307   -1.1713 H         1 <0>         0.0000
     15 H2          3.1098    0.9933    0.4860 H         1 <0>         0.0000
     16 H3          0.8238   -2.5508   -0.3800 H         1 <0>         0.0000
     17 H4          2.9454    0.5024    2.9087 H         1 <0>         0.0000
     18 H5          0.6728   -3.0390    2.0629 H         1 <0>         0.0000
     19 H6         -0.7296   -1.0934    8.9242 H         1 <0>         0.0000
     20 H7          0.9916   -1.4267    9.1093 H         1 <0>         0.0000
     21 H8          0.4535    0.2023    8.6249 H         1 <0>         0.0000
     22 H9         -0.4841   -1.1901    4.4380 H         1 <0>         0.0000
     23 H10         0.4574    0.2865    4.1871 H         1 <0>         0.0000
     24 H11         2.5437   -1.2127    4.6407 H         1 <0>         0.0000
     25 H12         0.6101    0.5449    6.4206 H         1 <0>         0.0000
     26 H13         0.9832   -3.0324    5.2273 H         1 <0>         0.0000
@<TRIPOS>BOND
     1    1    3 ar
     2    1    2 ar
     3    1   14 1
     4    2    4 ar
     5    2   15 1
     6    3    5 ar
     7    3   16 1
     8    4    6 ar
     9    4   17 1
    10    5    6 ar
    11    5   18 1
    12    6   10 1
    13    7    8 1
    14    7   11 am
    15    7   12 2
    16    8   19 1
    17    8   20 1
    18    8   21 1
    19    9   10 1
    20    9   11 1
    21    9   22 1
    22    9   23 1
    23   10   13 1
    24   10   24 1
    25   11   25 1
    26   13   26 1
