@<TRIPOS>MOLECULE
*****
   28    29     0     0     0
SMALL
NO_CHARGES

@<TRIPOS>ATOM
      1 C1          1.7106   -1.1477   -0.2517 C.ar      1 <0>         0.0000
      2 C2          0.6985   -0.4641    0.4329 C.ar      1 <0>         0.0000
      3 C3          2.7672   -1.7054    0.4671 C.ar      1 <0>         0.0000
      4 C4          0.7588   -0.3235    1.8192 C.ar      1 <0>         0.0000
      5 C5          2.8320   -1.5744    1.8593 C.ar      1 <0>         0.0000
      6 C6          1.8287   -0.8629    2.5456 C.ar      1 <0>         0.0000
      7 C7          3.8051   -3.2608    3.4487 C.2       1 <0>         0.0000
      8 C8          5.2302   -1.8205    2.5978 C.2       1 <0>         0.0000
      9 C9          2.5377   -3.9893    3.7408 C.3       1 <0>         0.0000
     10 C10         5.7989   -0.6875    1.8124 C.3       1 <0>         0.0000
     11 C11         2.9697   -0.2181    4.5753 C.3       1 <0>         0.0000
     12 N1          4.9893   -3.5125    3.9603 N.2       1 <0>         0.0000
     13 N2          5.8892   -2.5992    3.4253 N.2       1 <0>         0.0000
     14 N3          3.8973   -2.1935    2.5720 N.pl3     1 <0>         0.0000
     15 O1          1.7935   -0.7153    3.9074 O.3       1 <0>         0.0000
     16 H1          1.6691   -1.2585   -1.3312 H         1 <0>         0.0000
     17 H2         -0.1362   -0.0342   -0.1141 H         1 <0>         0.0000
     18 H3          3.5471   -2.2695   -0.0369 H         1 <0>         0.0000
     19 H4         -0.0113    0.2105    2.3679 H         1 <0>         0.0000
     20 H5          1.8148   -3.3402    4.2450 H         1 <0>         0.0000
     21 H6          2.0713   -4.3572    2.8209 H         1 <0>         0.0000
     22 H7          2.7668   -4.8381    4.3869 H         1 <0>         0.0000
     23 H8          5.7612   -0.8790    0.7350 H         1 <0>         0.0000
     24 H9          5.2523    0.2434    1.9980 H         1 <0>         0.0000
     25 H10         6.8409   -0.5529    2.1067 H         1 <0>         0.0000
     26 H11         2.6089    0.2809    5.4767 H         1 <0>         0.0000
     27 H12         3.4949    0.5071    3.9454 H         1 <0>         0.0000
     28 H13         3.6485   -1.0271    4.8549 H         1 <0>         0.0000
@<TRIPOS>BOND
     1    1    2 ar
     2    1    3 ar
     3    1   16 1
     4    2    4 ar
     5    2   17 1
     6    3    5 ar
     7    3   18 1
     8    4    6 ar
     9    4   19 1
    10    5    6 ar
    11    5   14 1
    12    6   15 1
    13    7    9 1
    14    7   12 2
    15    7   14 1
    16    8   10 1
    17    8   13 2
    18    8   14 1
    19    9   20 1
    20    9   21 1
    21    9   22 1
    22   10   23 1
    23   10   24 1
    24   10   25 1
    25   11   15 1
    26   11   26 1
    27   11   27 1
    28   11   28 1
    29   12   13 1
