@<TRIPOS>MOLECULE
*****
   30    30     0     0     0
SMALL
NO_CHARGES

@<TRIPOS>ATOM
      1 C1          5.6227   -2.4930   -0.4946 C.ar      1 <0>         0.0000
      2 C2          5.1216   -2.9853    0.7147 C.ar      1 <0>         0.0000
      3 C3          5.1439   -1.2777   -0.9993 C.ar      1 <0>         0.0000
      4 C4          4.1510   -2.2642    1.4182 C.ar      1 <0>         0.0000
      5 C5          4.1758   -0.5579   -0.2943 C.ar      1 <0>         0.0000
      6 C6          3.6754   -1.0430    0.9234 C.ar      1 <0>         0.0000
      7 C7          4.7205   -0.3306    4.0055 C.2       1 <0>         0.0000
      8 C8          6.1544   -0.6895    4.3559 C.3       1 <0>         0.0000
      9 C9          2.3406    1.6842    3.3626 C.3       1 <0>         0.0000
     10 C10         2.6634   -0.2349    1.7108 C.3       1 <0>         0.0000
     11 C11         3.3130    0.9866    2.4007 C.3       1 <0>         0.0000
     12 N1          4.5806    0.6625    3.0690 N.am      1 <0>         0.0000
     13 O1          3.7592   -0.9062    4.5157 O.2       1 <0>         0.0000
     14 O2          2.9116    2.8697    3.9151 O.3       1 <0>         0.0000
     15 O3          1.6452    0.3296    0.8688 O.3       1 <0>         0.0000
     16 H1          6.3744   -3.0541   -1.0439 H         1 <0>         0.0000
     17 H2          5.4813   -3.9330    1.1077 H         1 <0>         0.0000
     18 H3          5.5232   -0.8948   -1.9436 H         1 <0>         0.0000
     19 H4          3.7673   -2.6440    2.3619 H         1 <0>         0.0000
     20 H5          3.7931    0.3794   -0.6899 H         1 <0>         0.0000
     21 H6          6.1963   -1.0092    5.3981 H         1 <0>         0.0000
     22 H7          6.4615   -1.5320    3.7268 H         1 <0>         0.0000
     23 H8          6.8564    0.1340    4.1951 H         1 <0>         0.0000
     24 H9          2.0338    0.9864    4.1497 H         1 <0>         0.0000
     25 H10         1.4588    1.9968    2.8024 H         1 <0>         0.0000
     26 H11         2.2115   -0.8732    2.4776 H         1 <0>         0.0000
     27 H12         3.5668    1.7015    1.6122 H         1 <0>         0.0000
     28 H13         5.4236    0.9501    2.5901 H         1 <0>         0.0000
     29 H14         3.6867    2.5951    4.4312 H         1 <0>         0.0000
     30 H15         1.1857   -0.4043    0.4310 H         1 <0>         0.0000
@<TRIPOS>BOND
     1    1    3 ar
     2    1    2 ar
     3    1   16 1
     4    2    4 ar
     5    2   17 1
     6    3    5 ar
     7    3   18 1
     8    4    6 ar
     9    4   19 1
    10    5    6 ar
    11    5   20 1
    12    6   10 1
    13    7    8 1
    14    7   12 am
    15    7   13 2
    16    8   21 1
    17    8   22 1
    18    8   23 1
    19    9   11 1
    20    9   14 1
    21    9   24 1
    22    9   25 1
    23   10   11 1
    24   10   15 1
    25   10   26 1
    26   11   12 1
    27   11   27 1
    28   12   28 1
    29   14   29 1
    30   15   30 1
