@<TRIPOS>MOLECULE
*****
   30    30     0     0     0
SMALL
NO_CHARGES

@<TRIPOS>ATOM
      1 C1          5.5147   -2.0792   -1.1850 C.ar      1 <0>         0.0000
      2 C2          5.2909   -2.7056    0.0456 C.ar      1 <0>         0.0000
      3 C3          4.8791   -0.8645   -1.4692 C.ar      1 <0>         0.0000
      4 C4          4.4421   -2.1159    0.9878 C.ar      1 <0>         0.0000
      5 C5          4.0322   -0.2765   -0.5251 C.ar      1 <0>         0.0000
      6 C6          3.8117   -0.8948    0.7140 C.ar      1 <0>         0.0000
      7 C7          5.5596   -0.4299    3.6321 C.2       1 <0>         0.0000
      8 C8          7.0197   -0.8124    3.4800 C.3       1 <0>         0.0000
      9 C9          2.9361    1.3508    3.7797 C.3       1 <0>         0.0000
     10 C10         2.9528   -0.2274    1.7688 C.3       1 <0>         0.0000
     11 C11         3.7128    0.8889    2.5267 C.3       1 <0>         0.0000
     12 N1          5.1196    0.5430    2.7867 N.am      1 <0>         0.0000
     13 O1          4.8362   -0.9907    4.4662 O.2       1 <0>         0.0000
     14 O2          2.4174    0.3066    4.5817 O.3       1 <0>         0.0000
     15 O3          1.8166    0.4424    1.2075 O.3       1 <0>         0.0000
     16 H1          6.1710   -2.5375   -1.9204 H         1 <0>         0.0000
     17 H2          5.7710   -3.6552    0.2689 H         1 <0>         0.0000
     18 H3          5.0409   -0.3790   -2.4286 H         1 <0>         0.0000
     19 H4          4.2708   -2.6039    1.9450 H         1 <0>         0.0000
     20 H5          3.5253    0.6590   -0.7467 H         1 <0>         0.0000
     21 H6          7.4045   -1.1365    4.4478 H         1 <0>         0.0000
     22 H7          7.0866   -1.6536    2.7819 H         1 <0>         0.0000
     23 H8          7.6360    0.0042    3.0934 H         1 <0>         0.0000
     24 H9          2.0750    1.9273    3.4356 H         1 <0>         0.0000
     25 H10         3.5919    2.0201    4.3567 H         1 <0>         0.0000
     26 H11         2.6277   -0.9725    2.5023 H         1 <0>         0.0000
     27 H12         3.7557    1.7486    1.8496 H         1 <0>         0.0000
     28 H13         5.7693    0.8117    2.0589 H         1 <0>         0.0000
     29 H14         3.1742   -0.2770    4.8010 H         1 <0>         0.0000
     30 H15         1.1766   -0.2328    0.9346 H         1 <0>         0.0000
@<TRIPOS>BOND
     1    1    3 ar
     2    1    2 ar
     3    1   16 1
     4    2    4 ar
     5    2   17 1
     6    3    5 ar
     7    3   18 1
     8    4    6 ar
     9    4   19 1
    10    5    6 ar
    11    5   20 1
    12    6   10 1
    13    7    8 1
    14    7   12 am
    15    7   13 2
    16    8   21 1
    17    8   22 1
    18    8   23 1
    19    9   11 1
    20    9   14 1
    21    9   24 1
    22    9   25 1
    23   10   11 1
    24   10   15 1
    25   10   26 1
    26   11   12 1
    27   11   27 1
    28   12   28 1
    29   14   29 1
    30   15   30 1
