@<TRIPOS>MOLECULE
*****
   30    30     0     0     0
SMALL
NO_CHARGES

@<TRIPOS>ATOM
      1 C1          5.3436   -1.7833   -2.0911 C.ar      1 <0>         0.0000
      2 C2          6.0477   -1.8669   -0.8836 C.ar      1 <0>         0.0000
      3 C3          4.0064   -1.3756   -2.0830 C.ar      1 <0>         0.0000
      4 C4          5.4198   -1.5362    0.3186 C.ar      1 <0>         0.0000
      5 C5          3.3761   -1.0431   -0.8775 C.ar      1 <0>         0.0000
      6 C6          4.0822   -1.1132    0.3313 C.ar      1 <0>         0.0000
      7 C7          3.7781    0.5116    4.5792 C.2       1 <0>         0.0000
      8 C8          3.1592    1.0946    5.8382 C.3       1 <0>         0.0000
      9 C9          3.6887    1.8287    1.1074 C.3       1 <0>         0.0000
     10 C10         3.4520   -0.6946    1.6395 C.3       1 <0>         0.0000
     11 C11         3.9622    0.6955    2.1126 C.3       1 <0>         0.0000
     12 N1          3.3136    1.0232    3.3894 N.am      1 <0>         0.0000
     13 O1          4.6344   -0.3691    4.6186 O.2       1 <0>         0.0000
     14 O2          4.6438    1.8937    0.0584 O.3       1 <0>         0.0000
     15 O3          2.0306   -0.6743    1.4904 O.3       1 <0>         0.0000
     16 H1          5.8322   -2.0394   -3.0274 H         1 <0>         0.0000
     17 H2          7.0854   -2.1900   -0.8798 H         1 <0>         0.0000
     18 H3          3.4496   -1.3179   -3.0149 H         1 <0>         0.0000
     19 H4          5.9711   -1.6025    1.2540 H         1 <0>         0.0000
     20 H5          2.3350   -0.7382   -0.8655 H         1 <0>         0.0000
     21 H6          2.8287    0.2750    6.4805 H         1 <0>         0.0000
     22 H7          3.9306    1.6474    6.3824 H         1 <0>         0.0000
     23 H8          2.3154    1.7630    5.6443 H         1 <0>         0.0000
     24 H9          3.7692    2.7884    1.6288 H         1 <0>         0.0000
     25 H10         2.6656    1.7379    0.7165 H         1 <0>         0.0000
     26 H11         3.7368   -1.4154    2.4149 H         1 <0>         0.0000
     27 H12         5.0410    0.6309    2.2803 H         1 <0>         0.0000
     28 H13         2.7363    1.8540    3.4288 H         1 <0>         0.0000
     29 H14         4.5296    1.1124   -0.5075 H         1 <0>         0.0000
     30 H15         1.6691   -0.4433    2.3618 H         1 <0>         0.0000
@<TRIPOS>BOND
     1    1    3 ar
     2    1    2 ar
     3    1   16 1
     4    2    4 ar
     5    2   17 1
     6    3    5 ar
     7    3   18 1
     8    4    6 ar
     9    4   19 1
    10    5    6 ar
    11    5   20 1
    12    6   10 1
    13    7    8 1
    14    7   12 am
    15    7   13 2
    16    8   21 1
    17    8   22 1
    18    8   23 1
    19    9   11 1
    20    9   14 1
    21    9   24 1
    22    9   25 1
    23   10   11 1
    24   10   15 1
    25   10   26 1
    26   11   12 1
    27   11   27 1
    28   12   28 1
    29   14   29 1
    30   15   30 1
