@<TRIPOS>MOLECULE
*****
   27    28     0     0     0
SMALL
NO_CHARGES

@<TRIPOS>ATOM
      1 C1         -0.9323   -1.3063    1.6563 C.ar      1 <0>         0.0000
      2 C2          1.0100   -5.7521    6.0741 C.ar      1 <0>         0.0000
      3 C3          0.1229   -0.5603    1.1200 C.ar      1 <0>         0.0000
      4 C4          1.2339   -6.3492    4.8297 C.ar      1 <0>         0.0000
      5 C5         -0.7776   -1.8702    2.9201 C.ar      1 <0>         0.0000
      6 C6          0.8030   -4.3771    6.1612 C.ar      1 <0>         0.0000
      7 C7          1.2845   -0.4159    1.8805 C.ar      1 <0>         0.0000
      8 C8          1.2362   -5.5187    3.7095 C.ar      1 <0>         0.0000
      9 C9          0.4325   -1.6679    3.5913 C.ar      1 <0>         0.0000
     10 C10         0.8315   -3.6334    4.9658 C.ar      1 <0>         0.0000
     11 C11         0.6769   -1.3687    6.0134 C.2       1 <0>         0.0000
     12 C12         0.4090    0.1009    5.7435 C.3       1 <0>         0.0000
     13 N1          1.4451   -0.9612    3.0958 N.ar      1 <0>         0.0000
     14 N2          1.0427   -4.1966    3.7699 N.ar      1 <0>         0.0000
     15 N3          0.6087   -2.2266    4.9093 N.am      1 <0>         0.0000
     16 O1          0.9226   -1.7671    7.1463 O.2       1 <0>         0.0000
     17 H1         -1.8568   -1.4424    1.1015 H         1 <0>         0.0000
     18 H2          0.9941   -6.3518    6.9807 H         1 <0>         0.0000
     19 H3          0.0498   -0.1004    0.1388 H         1 <0>         0.0000
     20 H4          1.4006   -7.4174    4.7285 H         1 <0>         0.0000
     21 H5         -1.5607   -2.4627    3.3822 H         1 <0>         0.0000
     22 H6          0.6398   -3.8893    7.1098 H         1 <0>         0.0000
     23 H7          2.1275    0.1591    1.5012 H         1 <0>         0.0000
     24 H8          1.4044   -5.9268    2.7139 H         1 <0>         0.0000
     25 H9         -0.4664    0.2552    5.1072 H         1 <0>         0.0000
     26 H10         1.2667    0.5515    5.2379 H         1 <0>         0.0000
     27 H11         0.2588    0.5858    6.7081 H         1 <0>         0.0000
@<TRIPOS>BOND
     1    1    3 ar
     2    1    5 ar
     3    1   17 1
     4    2    4 ar
     5    2    6 ar
     6    2   18 1
     7    3    7 ar
     8    3   19 1
     9    4    8 ar
    10    4   20 1
    11    5    9 ar
    12    5   21 1
    13    6   10 ar
    14    6   22 1
    15    7   13 ar
    16    7   23 1
    17    8   14 ar
    18    8   24 1
    19    9   13 ar
    20    9   15 1
    21   10   14 ar
    22   10   15 1
    23   11   12 1
    24   11   15 am
    25   11   16 2
    26   12   25 1
    27   12   26 1
    28   12   27 1
