@<TRIPOS>MOLECULE
*****
   30    30     0     0     0
SMALL
NO_CHARGES

@<TRIPOS>ATOM
      1 C1          5.5513   -2.0577   -1.5223 C.ar      1 <0>         0.0000
      2 C2          5.8331   -2.1817   -0.1562 C.ar      1 <0>         0.0000
      3 C3          4.4406   -1.3158   -1.9343 C.ar      1 <0>         0.0000
      4 C4          5.0073   -1.5692    0.7885 C.ar      1 <0>         0.0000
      5 C5          3.6161   -0.6979   -0.9873 C.ar      1 <0>         0.0000
      6 C6          3.8929   -0.8203    0.3800 C.ar      1 <0>         0.0000
      7 C7          3.4348    0.9865    4.3706 C.2       1 <0>         0.0000
      8 C8          2.7440    1.5234    5.6116 C.3       1 <0>         0.0000
      9 C9          3.5734    2.3293    0.9233 C.3       1 <0>         0.0000
     10 C10         3.0445   -0.1402    1.4363 C.3       1 <0>         0.0000
     11 C11         3.6917    1.1765    1.9296 C.3       1 <0>         0.0000
     12 N1          3.1257    1.6085    3.1974 N.am      1 <0>         0.0000
     13 O1          4.2385    0.0504    4.4252 O.2       1 <0>         0.0000
     14 O2          2.2587    2.8893    0.8887 O.3       1 <0>         0.0000
     15 O3          1.7199    0.1805    0.9665 O.3       1 <0>         0.0000
     16 H1          6.1913   -2.5379   -2.2579 H         1 <0>         0.0000
     17 H2          6.6930   -2.7601    0.1719 H         1 <0>         0.0000
     18 H3          4.2156   -1.2156   -2.9931 H         1 <0>         0.0000
     19 H4          5.2238   -1.6675    1.8505 H         1 <0>         0.0000
     20 H5          2.7565   -0.1170   -1.3100 H         1 <0>         0.0000
     21 H6          2.2192    0.7019    6.1064 H         1 <0>         0.0000
     22 H7          3.5062    1.8902    6.3049 H         1 <0>         0.0000
     23 H8          2.0358    2.3299    5.4027 H         1 <0>         0.0000
     24 H9          3.8887    1.9844   -0.0689 H         1 <0>         0.0000
     25 H10         4.2374    3.1423    1.2277 H         1 <0>         0.0000
     26 H11         2.9725   -0.7992    2.3079 H         1 <0>         0.0000
     27 H12         4.7497    0.9568    2.0945 H         1 <0>         0.0000
     28 H13         2.3944    2.3081    3.1520 H         1 <0>         0.0000
     29 H14         1.6589    2.1581    0.6540 H         1 <0>         0.0000
     30 H15         1.2734   -0.6459    0.7239 H         1 <0>         0.0000
@<TRIPOS>BOND
     1    1    3 ar
     2    1    2 ar
     3    1   16 1
     4    2    4 ar
     5    2   17 1
     6    3    5 ar
     7    3   18 1
     8    4    6 ar
     9    4   19 1
    10    5    6 ar
    11    5   20 1
    12    6   10 1
    13    7    8 1
    14    7   12 am
    15    7   13 2
    16    8   21 1
    17    8   22 1
    18    8   23 1
    19    9   11 1
    20    9   14 1
    21    9   24 1
    22    9   25 1
    23   10   11 1
    24   10   15 1
    25   10   26 1
    26   11   12 1
    27   11   27 1
    28   12   28 1
    29   14   29 1
    30   15   30 1
