@<TRIPOS>MOLECULE
*****
   18    18     0     0     0
SMALL
NO_CHARGES

@<TRIPOS>ATOM
      1 C1         -0.6009   -0.6191    1.8811 C.2       1 <0>         0.0000
      2 C2         -0.1457   -0.7228    0.5950 C.2       1 <0>         0.0000
      3 C3         -1.0277   -1.7608    2.6270 C.2       1 <0>         0.0000
      4 C4         -0.0712   -2.0052   -0.0829 C.2       1 <0>         0.0000
      5 C5         -0.9691   -2.9678    1.9996 C.2       1 <0>         0.0000
      6 C6         -2.6145   -4.5989    2.4986 C.2       1 <0>         0.0000
      7 C7         -2.8003   -5.8711    3.2796 C.3       1 <0>         0.0000
      8 N1         -0.5150   -3.0837    0.7219 N.am      1 <0>         0.0000
      9 O1          0.3254   -2.2220   -1.2278 O.2       1 <0>         0.0000
     10 O2         -3.4407   -4.0084    1.8517 O.2       1 <0>         0.0000
     11 O3         -1.2958   -4.1611    2.6197 O.3       1 <0>         0.0000
     12 H1         -0.6425    0.3573    2.3574 H         1 <0>         0.0000
     13 H2          0.1800    0.1413    0.0267 H         1 <0>         0.0000
     14 H3         -1.3921   -1.6925    3.6442 H         1 <0>         0.0000
     15 H4         -2.0922   -6.6293    2.9339 H         1 <0>         0.0000
     16 H5         -3.8226   -6.2258    3.1551 H         1 <0>         0.0000
     17 H6         -2.5926   -5.6874    4.3377 H         1 <0>         0.0000
     18 H7         -0.4830   -3.9993    0.2837 H         1 <0>         0.0000
@<TRIPOS>BOND
     1    1    2 2
     2    1    3 1
     3    1   12 1
     4    2    4 1
     5    2   13 1
     6    3    5 2
     7    3   14 1
     8    4    8 am
     9    4    9 2
    10    5    8 1
    11    5   11 1
    12    6    7 1
    13    6   10 2
    14    6   11 1
    15    7   15 1
    16    7   16 1
    17    7   17 1
    18    8   18 1
