@<TRIPOS>MOLECULE
*****
   70    74     0     0     0
SMALL
NO_CHARGES

@<TRIPOS>ATOM
      1 C1          3.0958   -6.9824   -4.5104 C.ar      1 <0>         0.0000
      2 C2          4.8635   -6.4917   -6.0804 C.ar      1 <0>         0.0000
      3 C3          3.4142  -13.0992    1.4171 C.ar      1 <0>         0.0000
      4 C4          2.8641  -12.0618    0.6837 C.ar      1 <0>         0.0000
      5 C5          3.6774   -6.1272   -3.5835 C.ar      1 <0>         0.0000
      6 C6          5.4642   -5.6390   -5.1581 C.ar      1 <0>         0.0000
      7 C7          3.3933  -14.5465   -0.5168 C.ar      1 <0>         0.0000
      8 C8          2.8383  -13.5015   -1.2737 C.ar      1 <0>         0.0000
      9 C9          3.6805   -7.1852   -5.7780 C.ar      1 <0>         0.0000
     10 C10         3.6899  -14.3599    0.8299 C.ar      1 <0>         0.0000
     11 C11         2.5703  -12.2550   -0.6820 C.ar      1 <0>         0.0000
     12 C12         4.8713   -5.4520   -3.8961 C.ar      1 <0>         0.0000
     13 C13         2.5128  -13.6733   -2.6865 C.2       1 <0>         0.0000
     14 C14         3.1202   -8.1103   -6.8085 C.2       1 <0>         0.0000
     15 C15         3.9242  -10.7411   -5.6848 C.2       1 <0>         0.0000
     16 C16         8.8279   -2.4016    0.2745 C.3       1 <0>         0.0000
     17 C17         8.5970   -1.4808   -0.9318 C.3       1 <0>         0.0000
     18 C18         7.6010   -3.2842    0.5423 C.3       1 <0>         0.0000
     19 C19         1.5055   -9.9983   -7.5119 C.3       1 <0>         0.0000
     20 C20         8.1906   -2.2778   -2.1797 C.3       1 <0>         0.0000
     21 C21         7.1978   -4.0808   -0.7061 C.3       1 <0>         0.0000
     22 C22         1.0332  -11.3168   -6.8449 C.3       1 <0>         0.0000
     23 C23         2.0714   -9.1302   -6.3735 C.3       1 <0>         0.0000
     24 C24         2.5620  -10.1644   -5.3081 C.3       1 <0>         0.0000
     25 C25         6.9583   -3.1593   -1.9132 C.3       1 <0>         0.0000
     26 C26         1.4119  -11.1940   -5.3482 C.3       1 <0>         0.0000
     27 C27         4.2923  -15.4636    1.6645 C.3       1 <0>         0.0000
     28 C28         1.6644  -12.5549   -4.7128 C.3       1 <0>         0.0000
     29 C29         6.5977   -3.9445   -3.1667 C.3       1 <0>         0.0000
     30 N1          2.0171  -11.1927   -1.3925 N.2       1 <0>         0.0000
     31 N2          1.7540  -11.3273   -2.6311 N.2       1 <0>         0.0000
     32 N3          2.0135  -12.4985   -3.2767 N.am      1 <0>         0.0000
     33 O1          2.6383  -14.7065   -3.3375 O.2       1 <0>         0.0000
     34 O2          3.5241   -8.0764   -7.9654 O.2       1 <0>         0.0000
     35 O3          4.0927  -11.7259   -6.3697 O.2       1 <0>         0.0000
     36 O4          5.0038  -10.0643   -5.2007 O.3       1 <0>         0.0000
     37 O5          5.3696   -4.6498   -2.9223 O.3       1 <0>         0.0000
     38 H1          2.1696   -7.4794   -4.2404 H         1 <0>         0.0000
     39 H2          5.3137   -6.6489   -7.0557 H         1 <0>         0.0000
     40 H3          3.6414  -12.9479    2.4702 H         1 <0>         0.0000
     41 H4          2.6503  -11.0958    1.1313 H         1 <0>         0.0000
     42 H5          3.2273   -5.9635   -2.6090 H         1 <0>         0.0000
     43 H6          6.3843   -5.1314   -5.4229 H         1 <0>         0.0000
     44 H7          3.5840  -15.4945   -1.0112 H         1 <0>         0.0000
     45 H8          9.0708   -1.8070    1.1629 H         1 <0>         0.0000
     46 H9          9.6982   -3.0431    0.0778 H         1 <0>         0.0000
     47 H10         7.8028   -0.7609   -0.6909 H         1 <0>         0.0000
     48 H11         9.4985   -0.8939   -1.1419 H         1 <0>         0.0000
     49 H12         7.7994   -3.9695    1.3745 H         1 <0>         0.0000
     50 H13         6.7594   -2.6499    0.8533 H         1 <0>         0.0000
     51 H14         2.2926  -10.1894   -8.2426 H         1 <0>         0.0000
     52 H15         0.7015   -9.4759   -8.0364 H         1 <0>         0.0000
     53 H16         7.9924   -1.5939   -3.0146 H         1 <0>         0.0000
     54 H17         9.0307   -2.9166   -2.4884 H         1 <0>         0.0000
     55 H18         7.9993   -4.7910   -0.9576 H         1 <0>         0.0000
     56 H19         6.3002   -4.6751   -0.5091 H         1 <0>         0.0000
     57 H20        -0.0428  -11.4797   -6.9574 H         1 <0>         0.0000
     58 H21         1.5454  -12.1695   -7.2961 H         1 <0>         0.0000
     59 H22         1.2527   -8.5802   -5.8926 H         1 <0>         0.0000
     60 H23         2.6323   -9.7132   -4.3175 H         1 <0>         0.0000
     61 H24         6.1085   -2.5016   -1.6826 H         1 <0>         0.0000
     62 H25         0.5836  -10.7142   -4.8173 H         1 <0>         0.0000
     63 H26         3.6461  -15.7097    2.5145 H         1 <0>         0.0000
     64 H27         4.4412  -16.3731    1.0778 H         1 <0>         0.0000
     65 H28         5.2632  -15.1606    2.0724 H         1 <0>         0.0000
     66 H29         2.4779  -13.0761   -5.2159 H         1 <0>         0.0000
     67 H30         0.7707  -13.1805   -4.8151 H         1 <0>         0.0000
     68 H31         7.3905   -4.6648   -3.4101 H         1 <0>         0.0000
     69 H32         6.4647   -3.2701   -4.0229 H         1 <0>         0.0000
     70 H33         4.7162   -9.2604   -4.7314 H         1 <0>         0.0000
@<TRIPOS>BOND
     1    1    5 ar
     2    1    9 ar
     3    1   38 1
     4    2    6 ar
     5    2    9 ar
     6    2   39 1
     7    3    4 ar
     8    3   10 ar
     9    3   40 1
    10    4   11 ar
    11    4   41 1
    12    5   12 ar
    13    5   42 1
    14    6   12 ar
    15    6   43 1
    16    7    8 ar
    17    7   10 ar
    18    7   44 1
    19    8   11 ar
    20    8   13 1
    21    9   14 1
    22   10   27 1
    23   11   30 1
    24   12   37 1
    25   13   32 am
    26   13   33 2
    27   14   23 1
    28   14   34 2
    29   15   24 1
    30   15   35 2
    31   15   36 1
    32   16   18 1
    33   16   17 1
    34   16   45 1
    35   16   46 1
    36   17   20 1
    37   17   47 1
    38   17   48 1
    39   18   21 1
    40   18   49 1
    41   18   50 1
    42   19   22 1
    43   19   23 1
    44   19   51 1
    45   19   52 1
    46   20   25 1
    47   20   53 1
    48   20   54 1
    49   21   25 1
    50   21   55 1
    51   21   56 1
    52   22   26 1
    53   22   57 1
    54   22   58 1
    55   23   24 1
    56   23   59 1
    57   24   26 1
    58   24   60 1
    59   25   29 1
    60   25   61 1
    61   26   28 1
    62   26   62 1
    63   27   63 1
    64   27   64 1
    65   27   65 1
    66   28   32 1
    67   28   66 1
    68   28   67 1
    69   29   37 1
    70   29   68 1
    71   29   69 1
    72   30   31 2
    73   31   32 1
    74   36   70 1
