@<TRIPOS>MOLECULE
*****
   57    60     0     0     0
SMALL
NO_CHARGES

@<TRIPOS>ATOM
      1 C1          3.9952   -2.2872    6.0426 C.ar      1 <0>         0.0000
      2 C2          6.2336   -8.0622    1.0741 C.ar      1 <0>         0.0000
      3 C3          2.9517   -3.1162    6.4666 C.ar      1 <0>         0.0000
      4 C4          4.4756   -2.4004    4.7333 C.ar      1 <0>         0.0000
      5 C5          5.0540   -8.8083    1.1475 C.ar      1 <0>         0.0000
      6 C6          6.1649   -6.6648    1.0136 C.ar      1 <0>         0.0000
      7 C7          0.0904   -1.9016    1.8294 C.ar      1 <0>         0.0000
      8 C8          1.2174   -2.1038   -0.2705 C.ar      1 <0>         0.0000
      9 C9          2.3955   -4.0477    5.5845 C.ar      1 <0>         0.0000
     10 C10         3.9206   -3.3359    3.8569 C.ar      1 <0>         0.0000
     11 C11         3.8140   -8.1592    1.1601 C.ar      1 <0>         0.0000
     12 C12         4.9256   -6.0219    1.0241 C.ar      1 <0>         0.0000
     13 C13         0.7332   -3.0495    2.2979 C.ar      1 <0>         0.0000
     14 C14         1.8777   -3.2416    0.1887 C.ar      1 <0>         0.0000
     15 C15         0.3110   -1.4049    0.5397 C.ar      1 <0>         0.0000
     16 C16         2.8754   -4.1692    4.2745 C.ar      1 <0>         0.0000
     17 C17         3.7373   -6.7631    1.0940 C.ar      1 <0>         0.0000
     18 C18         1.6429   -3.7470    1.4828 C.ar      1 <0>         0.0000
     19 C19        -2.0721    0.5598   -1.0896 C.3       1 <0>         0.0000
     20 C20        -1.8945   -0.0116    0.3424 C.3       1 <0>         0.0000
     21 C21        -0.6543    0.0359   -1.4424 C.3       1 <0>         0.0000
     22 C22        -0.3548   -0.1254    0.0853 C.3       1 <0>         0.0000
     23 C23         2.2929   -5.2221    3.3510 C.3       1 <0>         0.0000
     24 C24         2.3943   -6.0588    1.0683 C.3       1 <0>         0.0000
     25 C25         0.3765    1.1064    0.6608 C.3       1 <0>         0.0000
     26 C26         1.8563    1.1998    0.2879 C.3       1 <0>         0.0000
     27 N1          2.3577   -4.8782    1.9361 N.pl3     1 <0>         0.0000
     28 O1          2.4502    2.4292    0.7283 O.3       1 <0>         0.0000
     29 H1          4.4260   -1.5576    6.7236 H         1 <0>         0.0000
     30 H2          7.1982   -8.5631    1.0703 H         1 <0>         0.0000
     31 H3          2.5672   -3.0338    7.4802 H         1 <0>         0.0000
     32 H4          5.2826   -1.7558    4.3936 H         1 <0>         0.0000
     33 H5          5.0981   -9.8931    1.2029 H         1 <0>         0.0000
     34 H6          7.0787   -6.0780    0.9616 H         1 <0>         0.0000
     35 H7         -0.6047   -1.3865    2.4896 H         1 <0>         0.0000
     36 H8          1.4352   -1.7416   -1.2723 H         1 <0>         0.0000
     37 H9          1.5765   -4.6829    5.9179 H         1 <0>         0.0000
     38 H10         4.2836   -3.4155    2.8373 H         1 <0>         0.0000
     39 H11         2.8988   -8.7445    1.2269 H         1 <0>         0.0000
     40 H12         4.8698   -4.9373    0.9903 H         1 <0>         0.0000
     41 H13         0.5264   -3.3876    3.3061 H         1 <0>         0.0000
     42 H14         2.6054   -3.7272   -0.4559 H         1 <0>         0.0000
     43 H15        -2.1297    1.6515   -1.1009 H         1 <0>         0.0000
     44 H16        -2.9033    0.1634   -1.6787 H         1 <0>         0.0000
     45 H17        -2.2064    0.6212    1.1799 H         1 <0>         0.0000
     46 H18        -2.3558   -0.9972    0.4525 H         1 <0>         0.0000
     47 H19        -0.6966   -0.9314   -1.9506 H         1 <0>         0.0000
     48 H20        -0.0005    0.7032   -2.0121 H         1 <0>         0.0000
     49 H21         2.8778   -6.1402    3.4723 H         1 <0>         0.0000
     50 H22         1.2652   -5.4689    3.6694 H         1 <0>         0.0000
     51 H23         2.1681   -5.7458    0.0479 H         1 <0>         0.0000
     52 H24         1.6010   -6.7707    1.3502 H         1 <0>         0.0000
     53 H25         0.2854    1.0812    1.7562 H         1 <0>         0.0000
     54 H26        -0.1205    2.0236    0.3219 H         1 <0>         0.0000
     55 H27         2.4088    0.3393    0.6849 H         1 <0>         0.0000
     56 H28         1.9799    1.1974   -0.7987 H         1 <0>         0.0000
     57 H29         2.4211    2.4391    1.6977 H         1 <0>         0.0000
@<TRIPOS>BOND
     1    1    4 ar
     2    1    3 ar
     3    1   29 1
     4    2    6 ar
     5    2    5 ar
     6    2   30 1
     7    3    9 ar
     8    3   31 1
     9    4   10 ar
    10    4   32 1
    11    5   11 ar
    12    5   33 1
    13    6   12 ar
    14    6   34 1
    15    7   13 ar
    16    7   15 ar
    17    7   35 1
    18    8   14 ar
    19    8   15 ar
    20    8   36 1
    21    9   16 ar
    22    9   37 1
    23   10   16 ar
    24   10   38 1
    25   11   17 ar
    26   11   39 1
    27   12   17 ar
    28   12   40 1
    29   13   18 ar
    30   13   41 1
    31   14   18 ar
    32   14   42 1
    33   15   22 1
    34   16   23 1
    35   17   24 1
    36   18   27 1
    37   19   21 1
    38   19   20 1
    39   19   43 1
    40   19   44 1
    41   20   22 1
    42   20   45 1
    43   20   46 1
    44   21   22 1
    45   21   47 1
    46   21   48 1
    47   22   25 1
    48   23   27 1
    49   23   49 1
    50   23   50 1
    51   24   27 1
    52   24   51 1
    53   24   52 1
    54   25   26 1
    55   25   53 1
    56   25   54 1
    57   26   28 1
    58   26   55 1
    59   26   56 1
    60   28   57 1
