@<TRIPOS>MOLECULE
*****
   70    74     0     0     0
SMALL
NO_CHARGES

@<TRIPOS>ATOM
      1 C1          2.9497   -7.7198   -4.4854 C.ar      1 <0>         0.0000
      2 C2          4.5702   -6.7728   -6.0045 C.ar      1 <0>         0.0000
      3 C3         -2.8217  -17.3521   -5.6395 C.ar      1 <0>         0.0000
      4 C4         -2.3813  -16.3985   -4.7369 C.ar      1 <0>         0.0000
      5 C5          3.4692   -6.9550   -3.4492 C.ar      1 <0>         0.0000
      6 C6          5.1090   -6.0075   -4.9739 C.ar      1 <0>         0.0000
      7 C7         -0.9774  -16.8717   -7.1232 C.ar      1 <0>         0.0000
      8 C8         -0.5188  -15.9025   -6.2165 C.ar      1 <0>         0.0000
      9 C9          3.4918   -7.6461   -5.7856 C.ar      1 <0>         0.0000
     10 C10        -2.1276  -17.6060   -6.8488 C.ar      1 <0>         0.0000
     11 C11        -1.2151  -15.6587   -5.0202 C.ar      1 <0>         0.0000
     12 C12         4.5577   -6.0944   -3.6823 C.ar      1 <0>         0.0000
     13 C13         0.6824  -15.1150   -6.4899 C.2       1 <0>         0.0000
     14 C14         2.9845   -8.4474   -6.9407 C.2       1 <0>         0.0000
     15 C15         4.1141  -11.1519   -6.3753 C.2       1 <0>         0.0000
     16 C16         8.2746   -3.1510    0.7858 C.3       1 <0>         0.0000
     17 C17         7.8365   -2.1073   -0.2510 C.3       1 <0>         0.0000
     18 C18         7.2136   -4.2476    0.9530 C.3       1 <0>         0.0000
     19 C19         1.5269  -10.3458   -7.9089 C.3       1 <0>         0.0000
     20 C20         7.4835   -2.7612   -1.5947 C.3       1 <0>         0.0000
     21 C21         6.8628   -4.9002   -0.3912 C.3       1 <0>         0.0000
     22 C22         1.2034  -11.7979   -7.4704 C.3       1 <0>         0.0000
     23 C23         2.0746   -9.6391   -6.6552 C.3       1 <0>         0.0000
     24 C24         2.7316  -10.7943   -5.8288 C.3       1 <0>         0.0000
     25 C25         6.4163   -3.8566   -1.4282 C.3       1 <0>         0.0000
     26 C26         1.6818  -11.9112   -6.0025 C.3       1 <0>         0.0000
     27 C27        -2.6416  -18.6526   -7.8072 C.3       1 <0>         0.0000
     28 C28         2.1313  -13.3073   -5.5642 C.3       1 <0>         0.0000
     29 C29         6.1043   -4.4904   -2.7767 C.3       1 <0>         0.0000
     30 N1         -0.8000  -14.7061   -4.0911 N.2       1 <0>         0.0000
     31 N2          0.2478  -14.0221   -4.3135 N.2       1 <0>         0.0000
     32 N3          0.9776  -14.2132   -5.4548 N.am      1 <0>         0.0000
     33 O1          1.3805  -15.1999   -7.4964 O.2       1 <0>         0.0000
     34 O2          3.3247   -8.1746   -8.0860 O.2       1 <0>         0.0000
     35 O3          4.3321  -12.0340   -7.1742 O.2       1 <0>         0.0000
     36 O4          5.1471  -10.3976   -5.9023 O.3       1 <0>         0.0000
     37 O5          5.0001   -5.3960   -2.6079 O.3       1 <0>         0.0000
     38 H1          2.1004   -8.3623   -4.2759 H         1 <0>         0.0000
     39 H2          4.9872   -6.7161   -7.0052 H         1 <0>         0.0000
     40 H3         -3.7216  -17.9221   -5.4186 H         1 <0>         0.0000
     41 H4         -2.9104  -16.2014   -3.8093 H         1 <0>         0.0000
     42 H5          3.0484   -7.0001   -2.4493 H         1 <0>         0.0000
     43 H6          5.9486   -5.3540   -5.1791 H         1 <0>         0.0000
     44 H7         -0.4115  -17.0288   -8.0368 H         1 <0>         0.0000
     45 H8          8.4762   -2.6662    1.7481 H         1 <0>         0.0000
     46 H9          9.2191   -3.6089    0.4605 H         1 <0>         0.0000
     47 H10         6.9579   -1.5674    0.1276 H         1 <0>         0.0000
     48 H11         8.6249   -1.3598   -0.3964 H         1 <0>         0.0000
     49 H12         7.5625   -5.0104    1.6585 H         1 <0>         0.0000
     50 H13         6.3055   -3.8096    1.3897 H         1 <0>         0.0000
     51 H14         2.2906  -10.3341   -8.6881 H         1 <0>         0.0000
     52 H15         0.6586   -9.8134   -8.3052 H         1 <0>         0.0000
     53 H16         7.1353   -1.9995   -2.3036 H         1 <0>         0.0000
     54 H17         8.3911   -3.2047   -2.0291 H         1 <0>         0.0000
     55 H18         7.7463   -5.4280   -0.7795 H         1 <0>         0.0000
     56 H19         6.0785   -5.6522   -0.2596 H         1 <0>         0.0000
     57 H20         0.1363  -12.0254   -7.5470 H         1 <0>         0.0000
     58 H21         1.7346  -12.5178   -8.0940 H         1 <0>         0.0000
     59 H22         1.2363   -9.2804   -6.0450 H         1 <0>         0.0000
     60 H23         2.8390  -10.5199   -4.7745 H         1 <0>         0.0000
     61 H24         5.4921   -3.3836   -1.0674 H         1 <0>         0.0000
     62 H25         0.8541  -11.6285   -5.3394 H         1 <0>         0.0000
     63 H26        -3.6463  -18.3979   -8.1629 H         1 <0>         0.0000
     64 H27        -1.9898  -18.7519   -8.6784 H         1 <0>         0.0000
     65 H28        -2.7087  -19.6317   -7.3199 H         1 <0>         0.0000
     66 H29         2.5979  -13.2723   -4.5764 H         1 <0>         0.0000
     67 H30         2.8259  -13.7416   -6.2794 H         1 <0>         0.0000
     68 H31         6.9760   -5.0430   -3.1525 H         1 <0>         0.0000
     69 H32         5.8331   -3.7232   -3.5136 H         1 <0>         0.0000
     70 H33         4.8153   -9.6794   -5.3330 H         1 <0>         0.0000
@<TRIPOS>BOND
     1    1    5 ar
     2    1    9 ar
     3    1   38 1
     4    2    6 ar
     5    2    9 ar
     6    2   39 1
     7    3    4 ar
     8    3   10 ar
     9    3   40 1
    10    4   11 ar
    11    4   41 1
    12    5   12 ar
    13    5   42 1
    14    6   12 ar
    15    6   43 1
    16    7    8 ar
    17    7   10 ar
    18    7   44 1
    19    8   11 ar
    20    8   13 1
    21    9   14 1
    22   10   27 1
    23   11   30 1
    24   12   37 1
    25   13   32 am
    26   13   33 2
    27   14   23 1
    28   14   34 2
    29   15   24 1
    30   15   35 2
    31   15   36 1
    32   16   18 1
    33   16   17 1
    34   16   45 1
    35   16   46 1
    36   17   20 1
    37   17   47 1
    38   17   48 1
    39   18   21 1
    40   18   49 1
    41   18   50 1
    42   19   22 1
    43   19   23 1
    44   19   51 1
    45   19   52 1
    46   20   25 1
    47   20   53 1
    48   20   54 1
    49   21   25 1
    50   21   55 1
    51   21   56 1
    52   22   26 1
    53   22   57 1
    54   22   58 1
    55   23   24 1
    56   23   59 1
    57   24   26 1
    58   24   60 1
    59   25   29 1
    60   25   61 1
    61   26   28 1
    62   26   62 1
    63   27   63 1
    64   27   64 1
    65   27   65 1
    66   28   32 1
    67   28   66 1
    68   28   67 1
    69   29   37 1
    70   29   68 1
    71   29   69 1
    72   30   31 2
    73   31   32 1
    74   36   70 1
