@<TRIPOS>MOLECULE
*****
   67    69     0     0     0
SMALL
NO_CHARGES

@<TRIPOS>ATOM
      1 C1         -4.9776   -6.6409    6.7672 C.ar      1 <0>         0.0000
      2 C2          2.2776   -3.4383    4.6895 C.ar      1 <0>         0.0000
      3 C3         -4.3616   -6.4204    5.5286 C.ar      1 <0>         0.0000
      4 C4         -5.2961   -5.5512    7.5820 C.ar      1 <0>         0.0000
      5 C5          1.1971   -4.2127    4.2485 C.ar      1 <0>         0.0000
      6 C6          2.0466   -2.3556    5.5414 C.ar      1 <0>         0.0000
      7 C7         -4.0701   -5.1205    5.1112 C.ar      1 <0>         0.0000
      8 C8         -4.9996   -4.2495    7.1602 C.ar      1 <0>         0.0000
      9 C9         -0.1008   -3.9091    4.6631 C.ar      1 <0>         0.0000
     10 C10         0.7432   -2.0545    5.9548 C.ar      1 <0>         0.0000
     11 C11        -4.3880   -4.0205    5.9224 C.ar      1 <0>         0.0000
     12 C12        -0.3407   -2.8303    5.5277 C.ar      1 <0>         0.0000
     13 C13        -0.9785    1.0555    2.5178 C.2       1 <0>         0.0000
     14 C14         2.5646    1.7587    2.4416 C.3       1 <0>         0.0000
     15 C15         1.2231    2.0125    3.1474 C.3       1 <0>         0.0000
     16 C16         1.1936    0.0977    1.5993 C.3       1 <0>         0.0000
     17 C17         1.2793    1.5821    4.6215 C.3       1 <0>         0.0000
     18 C18         0.7993    3.4773    3.0027 C.3       1 <0>         0.0000
     19 C19         1.0741    0.3384    0.0912 C.3       1 <0>         0.0000
     20 C20         0.9334   -1.3564    1.9824 C.3       1 <0>         0.0000
     21 C21        -3.5703   -0.2770    0.4752 C.3       1 <0>         0.0000
     22 C22        -4.0884   -2.6142    5.4445 C.3       1 <0>         0.0000
     23 C23        -1.7457   -2.5492    6.0163 C.3       1 <0>         0.0000
     24 C24        -3.1330   -1.3909    2.7190 C.3       1 <0>         0.0000
     25 C25        -2.5491   -1.2586    4.1283 C.3       1 <0>         0.0000
     26 C26        -2.9747   -0.1292    1.8690 C.3       1 <0>         0.0000
     27 N1          0.3722    1.0817    2.3666 N.am      1 <0>         0.0000
     28 N2         -2.7248   -2.4784    4.9256 N.3       1 <0>         0.0000
     29 O1         -1.6138    1.7646    3.2932 O.2       1 <0>         0.0000
     30 O2          2.5247    0.3944    2.0429 O.3       1 <0>         0.0000
     31 O3         -1.5576    0.1457    1.6802 O.3       1 <0>         0.0000
     32 H1         -5.2024   -7.6529    7.0942 H         1 <0>         0.0000
     33 H2          3.2873   -3.6681    4.3593 H         1 <0>         0.0000
     34 H3         -4.1087   -7.2639    4.8907 H         1 <0>         0.0000
     35 H4         -5.7684   -5.7129    8.5479 H         1 <0>         0.0000
     36 H5          1.3691   -5.0507    3.5772 H         1 <0>         0.0000
     37 H6          2.8770   -1.7389    5.8756 H         1 <0>         0.0000
     38 H7         -3.5815   -4.9429    4.1570 H         1 <0>         0.0000
     39 H8         -5.2410   -3.4054    7.8032 H         1 <0>         0.0000
     40 H9         -0.9440   -4.5005    4.3176 H         1 <0>         0.0000
     41 H10         0.5678   -1.2048    6.6113 H         1 <0>         0.0000
     42 H11         2.6778    2.4209    1.5713 H         1 <0>         0.0000
     43 H12         3.4226    1.8908    3.1042 H         1 <0>         0.0000
     44 H13         0.2766    1.5974    5.0547 H         1 <0>         0.0000
     45 H14         1.9153    2.2669    5.1936 H         1 <0>         0.0000
     46 H15         1.6866    0.5711    4.7072 H         1 <0>         0.0000
     47 H16        -0.1328    3.6718    3.5332 H         1 <0>         0.0000
     48 H17         0.6606    3.7365    1.9482 H         1 <0>         0.0000
     49 H18         1.5823    4.1236    3.4155 H         1 <0>         0.0000
     50 H19         1.3651    1.3626   -0.1585 H         1 <0>         0.0000
     51 H20         0.0460    0.1784   -0.2393 H         1 <0>         0.0000
     52 H21         1.7337   -0.3528   -0.4416 H         1 <0>         0.0000
     53 H22         0.9209   -1.4654    3.0671 H         1 <0>         0.0000
     54 H23         1.7493   -1.9680    1.5880 H         1 <0>         0.0000
     55 H24        -0.0096   -1.7147    1.5720 H         1 <0>         0.0000
     56 H25        -3.1038   -1.1092   -0.0621 H         1 <0>         0.0000
     57 H26        -4.6457   -0.4704    0.5424 H         1 <0>         0.0000
     58 H27        -3.4195    0.6382   -0.1047 H         1 <0>         0.0000
     59 H28        -4.7839   -2.3643    4.6375 H         1 <0>         0.0000
     60 H29        -4.2892   -1.8942    6.2597 H         1 <0>         0.0000
     61 H30        -2.0533   -3.3638    6.6805 H         1 <0>         0.0000
     62 H31        -1.7505   -1.6264    6.6252 H         1 <0>         0.0000
     63 H32        -2.6502   -2.2359    2.2146 H         1 <0>         0.0000
     64 H33        -4.2042   -1.6192    2.7656 H         1 <0>         0.0000
     65 H34        -1.4755   -1.0806    4.0427 H         1 <0>         0.0000
     66 H35        -2.9713   -0.3746    4.6371 H         1 <0>         0.0000
     67 H36        -3.4130    0.7291    2.3825 H         1 <0>         0.0000
@<TRIPOS>BOND
     1    1    4 ar
     2    1    3 ar
     3    1   32 1
     4    2    6 ar
     5    2    5 ar
     6    2   33 1
     7    3    7 ar
     8    3   34 1
     9    4    8 ar
    10    4   35 1
    11    5    9 ar
    12    5   36 1
    13    6   10 ar
    14    6   37 1
    15    7   11 ar
    16    7   38 1
    17    8   11 ar
    18    8   39 1
    19    9   12 ar
    20    9   40 1
    21   10   12 ar
    22   10   41 1
    23   11   22 1
    24   12   23 1
    25   13   27 am
    26   13   29 2
    27   13   31 1
    28   14   15 1
    29   14   30 1
    30   14   42 1
    31   14   43 1
    32   15   17 1
    33   15   18 1
    34   15   27 1
    35   16   19 1
    36   16   20 1
    37   16   27 1
    38   16   30 1
    39   17   44 1
    40   17   45 1
    41   17   46 1
    42   18   47 1
    43   18   48 1
    44   18   49 1
    45   19   50 1
    46   19   51 1
    47   19   52 1
    48   20   53 1
    49   20   54 1
    50   20   55 1
    51   21   26 1
    52   21   56 1
    53   21   57 1
    54   21   58 1
    55   22   28 1
    56   22   59 1
    57   22   60 1
    58   23   28 1
    59   23   61 1
    60   23   62 1
    61   24   25 1
    62   24   26 1
    63   24   63 1
    64   24   64 1
    65   25   28 1
    66   25   65 1
    67   25   66 1
    68   26   31 1
    69   26   67 1
