@<TRIPOS>MOLECULE
*****
   68    72     0     0     0
SMALL
NO_CHARGES

@<TRIPOS>ATOM
      1 C1          7.7288    2.1569   -4.7294 C.ar      1 <0>         0.0000
      2 C2          6.7952    3.1516   -5.0381 C.ar      1 <0>         0.0000
      3 C3          7.7556    1.5971   -3.4465 C.ar      1 <0>         0.0000
      4 C4         -9.7935   -7.1768   -0.2145 C.ar      1 <0>         0.0000
      5 C5         -1.4920    0.7190   -0.3473 C.ar      1 <0>         0.0000
      6 C6         -0.2127    4.0301   -1.4460 C.ar      1 <0>         0.0000
      7 C7          0.7437    2.6551    0.2996 C.ar      1 <0>         0.0000
      8 C8          5.8999    3.5973   -4.0628 C.ar      1 <0>         0.0000
      9 C9          6.8549    2.0321   -2.4745 C.ar      1 <0>         0.0000
     10 C10        -8.7596   -6.2757   -0.4724 C.ar      1 <0>         0.0000
     11 C11        -2.6471   -0.0541   -0.3370 C.ar      1 <0>         0.0000
     12 C12         0.9388    4.8128   -1.4710 C.ar      1 <0>         0.0000
     13 C13         1.9044    3.4246    0.2874 C.ar      1 <0>         0.0000
     14 C14        -2.8240    2.6903   -0.7141 C.ar      1 <0>         0.0000
     15 C15       -10.9598   -7.0885   -0.9807 C.ar      1 <0>         0.0000
     16 C16       -10.1320   -5.3266   -2.1915 C.ar      1 <0>         0.0000
     17 C17        -0.3310    2.9385   -0.5641 C.ar      1 <0>         0.0000
     18 C18        -1.5582    2.1114   -0.5435 C.ar      1 <0>         0.0000
     19 C19         5.9294    3.0434   -2.7733 C.ar      1 <0>         0.0000
     20 C20        -4.0020    1.9375   -0.6995 C.ar      1 <0>         0.0000
     21 C21        -8.9244   -5.3187   -1.4785 C.ar      1 <0>         0.0000
     22 C22        -3.8989    0.5485   -0.5169 C.ar      1 <0>         0.0000
     23 C23         1.9883    4.4959   -0.6046 C.ar      1 <0>         0.0000
     24 C24         4.9952    3.4606   -1.6800 C.2       1 <0>         0.0000
     25 C25        -5.3594    2.5915   -0.8509 C.3       1 <0>         0.0000
     26 C26        -6.4720    1.6553   -0.3690 C.3       1 <0>         0.0000
     27 C27        -6.2472    0.2616   -0.9443 C.3       1 <0>         0.0000
     28 C28        -7.3102   -0.7474   -0.5422 C.3       1 <0>         0.0000
     29 C29        -8.0044   -3.0894   -0.7769 C.3       1 <0>         0.0000
     30 C30        -7.8610   -4.2794   -1.7448 C.3       1 <0>         0.0000
     31 N1        -11.1341   -6.1864   -1.9565 N.ar      1 <0>         0.0000
     32 N2          4.4349    4.7269   -1.8239 N.am      1 <0>         0.0000
     33 N3         -7.0558   -2.0441   -1.1709 N.3       1 <0>         0.0000
     34 O1          4.7227    2.7408   -0.7284 O.2       1 <0>         0.0000
     35 O2          4.1157    5.4349    0.6639 O.2       1 <0>         0.0000
     36 O3          3.1663    6.7817   -1.2834 O.2       1 <0>         0.0000
     37 O4         -4.9911   -0.2817   -0.4756 O.3       1 <0>         0.0000
     38 O5         -7.9552   -3.8079   -3.0821 O.3       1 <0>         0.0000
     39 S1          3.4576    5.5011   -0.6333 S.o2      1 <0>         0.0000
     40 H1          8.4279    1.8145   -5.4878 H         1 <0>         0.0000
     41 H2          6.7598    3.5749   -6.0381 H         1 <0>         0.0000
     42 H3          8.4771    0.8208   -3.2067 H         1 <0>         0.0000
     43 H4         -9.6999   -7.9362    0.5568 H         1 <0>         0.0000
     44 H5         -0.5269    0.2332   -0.2361 H         1 <0>         0.0000
     45 H6         -1.0211    4.2537   -2.1359 H         1 <0>         0.0000
     46 H7          0.6605    1.8375    1.0094 H         1 <0>         0.0000
     47 H8          5.1587    4.3458   -4.3307 H         1 <0>         0.0000
     48 H9          6.8519    1.6031   -1.4774 H         1 <0>         0.0000
     49 H10        -7.8328   -6.3217    0.0972 H         1 <0>         0.0000
     50 H11        -2.5998   -1.1310   -0.2030 H         1 <0>         0.0000
     51 H12         1.0273    5.6587   -2.1454 H         1 <0>         0.0000
     52 H13         2.7333    3.2067    0.9506 H         1 <0>         0.0000
     53 H14        -2.9055    3.7697   -0.8233 H         1 <0>         0.0000
     54 H15       -11.7872   -7.7753   -0.8070 H         1 <0>         0.0000
     55 H16       -10.2804   -4.6117   -2.9964 H         1 <0>         0.0000
     56 H17        -5.3824    3.5338   -0.2939 H         1 <0>         0.0000
     57 H18        -5.5290    2.8481   -1.9045 H         1 <0>         0.0000
     58 H19        -6.4714    1.5921    0.7251 H         1 <0>         0.0000
     59 H20        -7.4529    2.0284   -0.6809 H         1 <0>         0.0000
     60 H21        -6.1971    0.3115   -2.0412 H         1 <0>         0.0000
     61 H22        -8.2854   -0.3814   -0.8818 H         1 <0>         0.0000
     62 H23        -7.3430   -0.8079    0.5590 H         1 <0>         0.0000
     63 H24        -7.8810   -3.4277    0.2644 H         1 <0>         0.0000
     64 H25        -9.0189   -2.6878   -0.8756 H         1 <0>         0.0000
     65 H26        -6.8715   -4.7403   -1.5807 H         1 <0>         0.0000
     66 H27         4.7955    5.3870   -2.5064 H         1 <0>         0.0000
     67 H28        -6.1083   -2.3324   -0.9294 H         1 <0>         0.0000
     68 H29        -7.5280   -2.9281   -3.0620 H         1 <0>         0.0000
@<TRIPOS>BOND
     1    1    3 ar
     2    1    2 ar
     3    1   40 1
     4    2    8 ar
     5    2   41 1
     6    3    9 ar
     7    3   42 1
     8    4   10 ar
     9    4   15 ar
    10    4   43 1
    11    5   11 ar
    12    5   18 ar
    13    5   44 1
    14    6   12 ar
    15    6   17 ar
    16    6   45 1
    17    7   13 ar
    18    7   17 ar
    19    7   46 1
    20    8   19 ar
    21    8   47 1
    22    9   19 ar
    23    9   48 1
    24   10   21 ar
    25   10   49 1
    26   11   22 ar
    27   11   50 1
    28   12   23 ar
    29   12   51 1
    30   13   23 ar
    31   13   52 1
    32   14   18 ar
    33   14   20 ar
    34   14   53 1
    35   15   31 ar
    36   15   54 1
    37   16   21 ar
    38   16   31 ar
    39   16   55 1
    40   17   18 1
    41   19   24 1
    42   20   22 ar
    43   20   25 1
    44   21   30 1
    45   22   37 1
    46   23   39 1
    47   24   32 am
    48   24   34 2
    49   25   26 1
    50   25   56 1
    51   25   57 1
    52   26   27 1
    53   26   58 1
    54   26   59 1
    55   27   28 1
    56   27   37 1
    57   27   60 1
    58   28   33 1
    59   28   61 1
    60   28   62 1
    61   29   30 1
    62   29   33 1
    63   29   63 1
    64   29   64 1
    65   30   38 1
    66   30   65 1
    67   32   39 1
    68   32   66 1
    69   33   67 1
    70   35   39 2
    71   36   39 2
    72   38   68 1
