@<TRIPOS>MOLECULE
*****
   20    21     0     0     0
SMALL
NO_CHARGES

@<TRIPOS>ATOM
      1 C1          2.0269   -0.9531   -0.2076 C.ar      1 <0>         0.0000
      2 C2          1.0126   -0.2047    0.3927 C.ar      1 <0>         0.0000
      3 C3          2.6710   -1.8168    1.9759 C.ar      1 <0>         0.0000
      4 C4          2.0540   -4.3974    5.3727 C.2       1 <0>         0.0000
      5 C5          1.9257   -3.8928    6.6470 C.2       1 <0>         0.0000
      6 C6          1.6659   -1.0521    2.5925 C.ar      1 <0>         0.0000
      7 C7          2.8381   -1.7437    0.6010 C.ar      1 <0>         0.0000
      8 C8          0.8506   -0.2550    1.7733 C.ar      1 <0>         0.0000
      9 C9          1.7175   -2.2762    4.8510 C.2       1 <0>         0.0000
     10 C10         1.5050   -1.0215    4.0790 C.2       1 <0>         0.0000
     11 N1          1.9342   -3.4773    4.3673 N.2       1 <0>         0.0000
     12 O1          1.2061    0.0047    4.6796 O.2       1 <0>         0.0000
     13 F1          3.8263   -2.4729    0.0228 F         1 <0>         0.0000
     14 F2         -0.1533    0.4642    2.3139 F         1 <0>         0.0000
     15 S1          1.6400   -2.1958    6.6014 S.3       1 <0>         0.0000
     16 H1          2.1878   -0.9303   -1.2808 H         1 <0>         0.0000
     17 H2          0.3463    0.4184   -0.1952 H         1 <0>         0.0000
     18 H3          3.3175   -2.4592    2.5603 H         1 <0>         0.0000
     19 H4          2.2344   -5.4386    5.1283 H         1 <0>         0.0000
     20 H5          1.9824   -4.4320    7.5841 H         1 <0>         0.0000
@<TRIPOS>BOND
     1    1    2 ar
     2    1    7 ar
     3    1   16 1
     4    2    8 ar
     5    2   17 1
     6    3    6 ar
     7    3    7 ar
     8    3   18 1
     9    4    5 2
    10    4   11 1
    11    4   19 1
    12    5   15 1
    13    5   20 1
    14    6    8 ar
    15    6   10 1
    16    7   13 1
    17    8   14 1
    18    9   10 1
    19    9   11 2
    20    9   15 1
    21   10   12 2
