@<TRIPOS>MOLECULE
*****
   50    52     0     0     0
SMALL
NO_CHARGES

@<TRIPOS>ATOM
      1 C1          6.9342    3.9948    2.9213 C.ar      1 <0>         0.0000
      2 C2          7.0228    3.7176    1.5617 C.ar      1 <0>         0.0000
      3 C3          5.9462    3.3802    3.6842 C.ar      1 <0>         0.0000
      4 C4          6.1240    2.8267    0.9679 C.ar      1 <0>         0.0000
      5 C5          5.0461    2.4855    3.0797 C.ar      1 <0>         0.0000
      6 C6          5.1256    2.1973    1.7074 C.ar      1 <0>         0.0000
      7 C7          4.0360    1.8377    3.7853 C.ar      1 <0>         0.0000
      8 C8          3.3354    0.7797    1.9112 C.ar      1 <0>         0.0000
      9 C9          1.6865   -1.1702   -0.7967 C.3       1 <0>         0.0000
     10 C10         0.9489   -2.0573    1.4230 C.3       1 <0>         0.0000
     11 C11         2.1339    0.1266   -0.1242 C.3       1 <0>         0.0000
     12 C12         1.4040   -0.7594    2.0901 C.3       1 <0>         0.0000
     13 C13         0.5326   -1.8284   -0.0333 C.3       1 <0>         0.0000
     14 C14         1.6099    2.7406    5.6365 C.3       1 <0>         0.0000
     15 C15         3.7601    0.0702    6.5221 C.3       1 <0>         0.0000
     16 C16         0.1218   -3.1416   -0.6948 C.3       1 <0>         0.0000
     17 C17         3.0434    3.1501    5.6433 C.3       1 <0>         0.0000
     18 C18         4.5884    1.2467    6.1318 C.3       1 <0>         0.0000
     19 N1          4.2701    1.3431    1.1191 N.ar      1 <0>         0.0000
     20 N2          3.1631    0.9774    3.2280 N.ar      1 <0>         0.0000
     21 N3          2.4477   -0.1081    1.2917 N.pl3     1 <0>         0.0000
     22 N4         -0.9744   -3.7152    0.0109 N.3       1 <0>         0.0000
     23 N5          3.8941    2.0790    5.1745 N.pl3     1 <0>         0.0000
     24 H1          7.6317    4.6864    3.3840 H         1 <0>         0.0000
     25 H2          7.7913    4.1934    0.9591 H         1 <0>         0.0000
     26 H3          5.8970    3.6134    4.7447 H         1 <0>         0.0000
     27 H4          6.2140    2.6276   -0.0985 H         1 <0>         0.0000
     28 H5          1.3772   -0.9529   -1.8262 H         1 <0>         0.0000
     29 H6          2.5391   -1.8587   -0.8617 H         1 <0>         0.0000
     30 H7          1.7614   -2.7940    1.4723 H         1 <0>         0.0000
     31 H8          0.1088   -2.4766    1.9897 H         1 <0>         0.0000
     32 H9          3.0173    0.5089   -0.6508 H         1 <0>         0.0000
     33 H10         1.3435    0.8835   -0.2098 H         1 <0>         0.0000
     34 H11         0.5482   -0.0822    2.2086 H         1 <0>         0.0000
     35 H12         1.7820   -0.9939    3.0931 H         1 <0>         0.0000
     36 H13        -0.3327   -1.1525   -0.0507 H         1 <0>         0.0000
     37 H14         1.4743    1.8673    6.2914 H         1 <0>         0.0000
     38 H15         0.9893    3.5723    6.0014 H         1 <0>         0.0000
     39 H16         1.3079    2.4803    4.6112 H         1 <0>         0.0000
     40 H17         3.5320   -0.5306    5.6293 H         1 <0>         0.0000
     41 H18         4.3151   -0.5449    7.2457 H         1 <0>         0.0000
     42 H19         2.8221    0.4178    6.9795 H         1 <0>         0.0000
     43 H20        -0.1609   -2.9119   -1.7209 H         1 <0>         0.0000
     44 H21         0.9860   -3.8031   -0.6640 H         1 <0>         0.0000
     45 H22         3.1705    4.0233    4.9865 H         1 <0>         0.0000
     46 H23         3.3354    3.4176    6.6696 H         1 <0>         0.0000
     47 H24         4.8121    1.8419    7.0294 H         1 <0>         0.0000
     48 H25         5.5281    0.8915    5.6837 H         1 <0>         0.0000
     49 H26        -1.7485   -3.0754    0.0284 H         1 <0>         0.0000
     50 H27        -1.2677   -4.5650   -0.4369 H         1 <0>         0.0000
@<TRIPOS>BOND
     1    1    2 ar
     2    1    3 ar
     3    1   24 1
     4    2    4 ar
     5    2   25 1
     6    3    5 ar
     7    3   26 1
     8    4    6 ar
     9    4   27 1
    10    5    6 ar
    11    5    7 ar
    12    6   19 ar
    13    7   20 ar
    14    7   23 1
    15    8   19 ar
    16    8   20 ar
    17    8   21 1
    18    9   11 1
    19    9   13 1
    20    9   28 1
    21    9   29 1
    22   10   12 1
    23   10   13 1
    24   10   30 1
    25   10   31 1
    26   11   21 1
    27   11   32 1
    28   11   33 1
    29   12   21 1
    30   12   34 1
    31   12   35 1
    32   13   16 1
    33   13   36 1
    34   14   17 1
    35   14   37 1
    36   14   38 1
    37   14   39 1
    38   15   18 1
    39   15   40 1
    40   15   41 1
    41   15   42 1
    42   16   22 1
    43   16   43 1
    44   16   44 1
    45   17   23 1
    46   17   45 1
    47   17   46 1
    48   18   23 1
    49   18   47 1
    50   18   48 1
    51   22   49 1
    52   22   50 1
