@<TRIPOS>MOLECULE
*****
   65    68     0     0     0
SMALL
NO_CHARGES

@<TRIPOS>ATOM
      1 C1          2.0312    5.5131    3.5013 C.ar      1 <0>         0.0000
      2 C2          0.7366    4.9936    3.4797 C.ar      1 <0>         0.0000
      3 C3          0.4717    0.3929   -2.5892 C.ar      1 <0>         0.0000
      4 C4          3.1078    4.8157    2.9546 C.ar      1 <0>         0.0000
      5 C5         -0.0848    0.2174   -1.3227 C.ar      1 <0>         0.0000
      6 C6          1.6086    3.0284    2.3281 C.ar      1 <0>         0.0000
      7 C7         -2.3211    0.5253   -2.2398 C.ar      1 <0>         0.0000
      8 C8          0.5372    3.7367    2.8878 C.ar      1 <0>         0.0000
      9 C9         -0.3619    0.6309   -3.6858 C.ar      1 <0>         0.0000
     10 C10        -1.7470    0.6964   -3.5018 C.ar      1 <0>         0.0000
     11 C11         2.9203    3.5482    2.3458 C.ar      1 <0>         0.0000
     12 C12        -1.4775    0.2824   -1.1447 C.ar      1 <0>         0.0000
     13 C13        -2.5005    1.8752    2.4720 C.2       1 <0>         0.0000
     14 C14        -2.9687    3.0468    2.9984 C.2       1 <0>         0.0000
     15 C15        -0.7910    3.1333    2.8121 C.2       1 <0>         0.0000
     16 C16         1.5353    0.3135   -7.0936 C.2       1 <0>         0.0000
     17 C17        -2.4392    0.9999   -4.8140 C.3       1 <0>         0.0000
     18 C18        -1.3548    0.6705   -5.8664 C.3       1 <0>         0.0000
     19 C19        -0.0013    0.8833   -5.1397 C.3       1 <0>         0.0000
     20 C20        -4.3076    3.5891    3.3548 C.3       1 <0>         0.0000
     21 C21         6.1842    3.2305    2.9112 C.3       1 <0>         0.0000
     22 C22         3.3296    1.4652   -0.2009 C.3       1 <0>         0.0000
     23 C23        -3.2702    0.6760    2.0073 C.3       1 <0>         0.0000
     24 C24         1.1281   -0.0053   -5.6611 C.3       1 <0>         0.0000
     25 C25         5.3068    3.4335    1.6679 C.3       1 <0>         0.0000
     26 C26         3.8050    1.4986    1.2588 C.3       1 <0>         0.0000
     27 C27        -3.2330    0.4952    0.4871 C.3       1 <0>         0.0000
     28 N1         -1.1121    1.9500    2.3674 N.2       1 <0>         0.0000
     29 N2          3.9785    2.8459    1.7886 N.pl3     1 <0>         0.0000
     30 O1          1.1974    1.2948   -7.7126 O.2       1 <0>         0.0000
     31 O2         -1.8764    3.8636    3.2237 O.3       1 <0>         0.0000
     32 O3          2.3722   -0.6006   -7.6760 O.3       1 <0>         0.0000
     33 O4         -1.9151    0.0822    0.1344 O.3       1 <0>         0.0000
     34 H1          2.2147    6.4814    3.9607 H         1 <0>         0.0000
     35 H2         -0.0962    5.5407    3.9079 H         1 <0>         0.0000
     36 H3          1.5532    0.3525   -2.7026 H         1 <0>         0.0000
     37 H4          4.0948    5.2583    3.0158 H         1 <0>         0.0000
     38 H5          0.5329    0.0400   -0.4481 H         1 <0>         0.0000
     39 H6          1.3815    2.0777    1.8643 H         1 <0>         0.0000
     40 H7         -3.3994    0.5649   -2.1191 H         1 <0>         0.0000
     41 H8         -3.3603    0.4259   -4.9589 H         1 <0>         0.0000
     42 H9         -2.7129    2.0628   -4.8554 H         1 <0>         0.0000
     43 H10        -1.4420   -0.3859   -6.1510 H         1 <0>         0.0000
     44 H11        -1.4333    1.2671   -6.7767 H         1 <0>         0.0000
     45 H12         0.3117    1.9280   -5.2659 H         1 <0>         0.0000
     46 H13        -4.3624    3.8469    4.4184 H         1 <0>         0.0000
     47 H14        -4.5381    4.4936    2.7804 H         1 <0>         0.0000
     48 H15        -5.0803    2.8461    3.1444 H         1 <0>         0.0000
     49 H16         5.7224    3.6770    3.7963 H         1 <0>         0.0000
     50 H17         6.3272    2.1636    3.1122 H         1 <0>         0.0000
     51 H18         7.1707    3.6863    2.7680 H         1 <0>         0.0000
     52 H19         2.3628    1.9615   -0.3158 H         1 <0>         0.0000
     53 H20         4.0485    1.9726   -0.8532 H         1 <0>         0.0000
     54 H21         3.2275    0.4296   -0.5462 H         1 <0>         0.0000
     55 H22        -2.8696   -0.2308    2.4730 H         1 <0>         0.0000
     56 H23        -4.3169    0.7669    2.3159 H         1 <0>         0.0000
     57 H24         2.0262    0.1128   -5.0399 H         1 <0>         0.0000
     58 H25         0.8369   -1.0613   -5.5834 H         1 <0>         0.0000
     59 H26         5.7950    2.9788    0.7992 H         1 <0>         0.0000
     60 H27         5.2181    4.4987    1.4317 H         1 <0>         0.0000
     61 H28         4.7683    0.9836    1.3411 H         1 <0>         0.0000
     62 H29         3.1145    0.9394    1.8974 H         1 <0>         0.0000
     63 H30        -3.9608   -0.2667    0.1733 H         1 <0>         0.0000
     64 H31        -3.4814    1.4409   -0.0102 H         1 <0>         0.0000
     65 H32         2.5419   -1.3314   -7.0574 H         1 <0>         0.0000
@<TRIPOS>BOND
     1    1    2 ar
     2    1    4 ar
     3    1   34 1
     4    2    8 ar
     5    2   35 1
     6    3    5 ar
     7    3    9 ar
     8    3   36 1
     9    4   11 ar
    10    4   37 1
    11    5   12 ar
    12    5   38 1
    13    6    8 ar
    14    6   11 ar
    15    6   39 1
    16    7   10 ar
    17    7   12 ar
    18    7   40 1
    19    8   15 1
    20    9   10 ar
    21    9   19 1
    22   10   17 1
    23   11   29 1
    24   12   33 1
    25   13   14 2
    26   13   23 1
    27   13   28 1
    28   14   20 1
    29   14   31 1
    30   15   28 2
    31   15   31 1
    32   16   24 1
    33   16   30 2
    34   16   32 1
    35   17   18 1
    36   17   41 1
    37   17   42 1
    38   18   19 1
    39   18   43 1
    40   18   44 1
    41   19   24 1
    42   19   45 1
    43   20   46 1
    44   20   47 1
    45   20   48 1
    46   21   25 1
    47   21   49 1
    48   21   50 1
    49   21   51 1
    50   22   26 1
    51   22   52 1
    52   22   53 1
    53   22   54 1
    54   23   27 1
    55   23   55 1
    56   23   56 1
    57   24   57 1
    58   24   58 1
    59   25   29 1
    60   25   59 1
    61   25   60 1
    62   26   29 1
    63   26   61 1
    64   26   62 1
    65   27   33 1
    66   27   63 1
    67   27   64 1
    68   32   65 1
