@<TRIPOS>MOLECULE
*****
   55    56     0     0     0
SMALL
NO_CHARGES

@<TRIPOS>ATOM
      1 C1         -1.2672    2.5547    1.3503 C.ar      1 <0>         0.0000
      2 C2         -0.1660    3.0129    0.6044 C.ar      1 <0>         0.0000
      3 C3         -1.4943    1.1894    1.4628 C.ar      1 <0>         0.0000
      4 C4          0.6868    2.1164   -0.0338 C.ar      1 <0>         0.0000
      5 C5         -0.6377    0.2662    0.8349 C.ar      1 <0>         0.0000
      6 C6          0.4461    0.7401    0.0739 C.ar      1 <0>         0.0000
      7 C7         -0.8322   -1.1849    1.0185 C.2       1 <0>         0.0000
      8 C8          0.2954   -2.0903    0.4675 C.3       1 <0>         0.0000
      9 C9          0.8240   -1.4483   -0.8576 C.3       1 <0>         0.0000
     10 C10         2.0603   -2.1386   -1.4328 C.3       1 <0>         0.0000
     11 C11        -1.1631   -0.4189   -4.1123 C.3       1 <0>         0.0000
     12 C12         1.5826   -7.1553    1.2495 C.3       1 <0>         0.0000
     13 C13         1.5388   -4.5365    4.9561 C.3       1 <0>         0.0000
     14 C14        -0.2849   -3.5133    0.2652 C.3       1 <0>         0.0000
     15 C15         1.4020   -2.0604    1.5647 C.3       1 <0>         0.0000
     16 C16        -0.2947   -1.3711   -1.9286 C.3       1 <0>         0.0000
     17 C17        -0.0588   -0.3526   -3.0513 C.3       1 <0>         0.0000
     18 C18         0.7342   -4.6618    0.1871 C.3       1 <0>         0.0000
     19 C19         0.9516   -2.6656    2.9036 C.3       1 <0>         0.0000
     20 O1         -1.7771   -1.6432    1.6517 O.2       1 <0>         0.0000
     21 O2         -0.2454   -5.6665    2.4700 O.2       1 <0>         0.0000
     22 O3         -0.8901   -6.8066    0.2849 O.2       1 <0>         0.0000
     23 O4          2.8705   -4.5044    2.6564 O.2       1 <0>         0.0000
     24 O5          3.2598   -2.5939    4.2918 O.2       1 <0>         0.0000
     25 O6          1.3042   -0.0983   -0.5640 O.3       1 <0>         0.0000
     26 S1          0.1178   -6.1134    1.1051 S.o2      1 <0>         0.0000
     27 S2          2.3379   -3.5598    3.6699 S.o2      1 <0>         0.0000
     28 H1         -1.9290    3.2643    1.8379 H         1 <0>         0.0000
     29 H2          0.0209    4.0800    0.5157 H         1 <0>         0.0000
     30 H3         -2.3252    0.7980    2.0423 H         1 <0>         0.0000
     31 H4          1.5328    2.4562   -0.6236 H         1 <0>         0.0000
     32 H5          2.3959   -1.6011   -2.3221 H         1 <0>         0.0000
     33 H6          1.8352   -3.1655   -1.7242 H         1 <0>         0.0000
     34 H7          2.8894   -2.1442   -0.7235 H         1 <0>         0.0000
     35 H8         -1.2038   -1.4069   -4.5852 H         1 <0>         0.0000
     36 H9         -0.9968    0.3220   -4.9010 H         1 <0>         0.0000
     37 H10        -2.1470   -0.2214   -3.6719 H         1 <0>         0.0000
     38 H11         1.2589   -8.0541    1.7780 H         1 <0>         0.0000
     39 H12         1.9306   -7.4136    0.2477 H         1 <0>         0.0000
     40 H13         2.3350   -6.6077    1.8188 H         1 <0>         0.0000
     41 H14         2.3388   -5.0843    5.4578 H         1 <0>         0.0000
     42 H15         1.0499   -3.8572    5.6568 H         1 <0>         0.0000
     43 H16         0.8294   -5.2130    4.4777 H         1 <0>         0.0000
     44 H17        -0.9207   -3.5315   -0.6198 H         1 <0>         0.0000
     45 H18        -0.9679   -3.6871    1.0981 H         1 <0>         0.0000
     46 H19         1.7409   -1.0360    1.7217 H         1 <0>         0.0000
     47 H20         2.2714   -2.6066    1.1987 H         1 <0>         0.0000
     48 H21        -0.3998   -2.3669   -2.3720 H         1 <0>         0.0000
     49 H22        -1.2599   -1.1505   -1.4595 H         1 <0>         0.0000
     50 H23        -0.0180    0.6560   -2.6295 H         1 <0>         0.0000
     51 H24         0.9132   -0.5272   -3.5254 H         1 <0>         0.0000
     52 H25         0.9049   -5.0162   -0.8313 H         1 <0>         0.0000
     53 H26         1.6918   -4.4351    0.6545 H         1 <0>         0.0000
     54 H27         0.6324   -1.9078    3.6217 H         1 <0>         0.0000
     55 H28         0.1633   -3.4102    2.7984 H         1 <0>         0.0000
@<TRIPOS>BOND
     1    1    2 ar
     2    1    3 ar
     3    1   28 1
     4    2    4 ar
     5    2   29 1
     6    3    5 ar
     7    3   30 1
     8    4    6 ar
     9    4   31 1
    10    5    6 ar
    11    5    7 1
    12    6   25 1
    13    7    8 1
    14    7   20 2
    15    8    9 1
    16    8   14 1
    17    8   15 1
    18    9   10 1
    19    9   16 1
    20    9   25 1
    21   10   32 1
    22   10   33 1
    23   10   34 1
    24   11   17 1
    25   11   35 1
    26   11   36 1
    27   11   37 1
    28   12   26 1
    29   12   38 1
    30   12   39 1
    31   12   40 1
    32   13   27 1
    33   13   41 1
    34   13   42 1
    35   13   43 1
    36   14   18 1
    37   14   44 1
    38   14   45 1
    39   15   19 1
    40   15   46 1
    41   15   47 1
    42   16   17 1
    43   16   48 1
    44   16   49 1
    45   17   50 1
    46   17   51 1
    47   18   26 1
    48   18   52 1
    49   18   53 1
    50   19   27 1
    51   19   54 1
    52   19   55 1
    53   21   26 2
    54   22   26 2
    55   23   27 2
    56   24   27 2
