@<TRIPOS>MOLECULE
*****
   62    65     0     0     0
SMALL
NO_CHARGES

@<TRIPOS>ATOM
      1 C1          1.7662    5.7130    2.5792 C.ar      1 <0>         0.0000
      2 C2          1.2126   -1.8408    4.2420 C.ar      1 <0>         0.0000
      3 C3          3.1151    6.0237    2.7528 C.ar      1 <0>         0.0000
      4 C4          0.0294   -1.2510    3.7752 C.ar      1 <0>         0.0000
      5 C5          2.2964    3.3892    3.0198 C.ar      1 <0>         0.0000
      6 C6          0.2583    0.5199    5.4301 C.ar      1 <0>         0.0000
      7 C7          1.3550    4.3793    2.6969 C.ar      1 <0>         0.0000
      8 C8          1.9128   -1.2576    5.2948 C.ar      1 <0>         0.0000
      9 C9          1.4294   -0.0775    5.8826 C.ar      1 <0>         0.0000
     10 C10         4.0741    5.0493    3.0565 C.ar      1 <0>         0.0000
     11 C11         3.6447    3.7061    3.2161 C.ar      1 <0>         0.0000
     12 C12        -0.4473   -0.0732    4.3703 C.ar      1 <0>         0.0000
     13 C13        -1.8827    2.8922    2.3427 C.2       1 <0>         0.0000
     14 C14        -2.2061    4.2157    2.4240 C.2       1 <0>         0.0000
     15 C15        -0.0344    3.9746    2.5204 C.2       1 <0>         0.0000
     16 C16         5.4838   -2.7924    5.7547 C.2       1 <0>         0.0000
     17 C17         2.3364    0.3572    7.0143 C.3       1 <0>         0.0000
     18 C18         3.6263   -0.4634    6.7760 C.3       1 <0>         0.0000
     19 C19         3.1787   -1.7251    5.9923 C.3       1 <0>         0.0000
     20 C20         5.5293    5.4358    3.1634 C.3       1 <0>         0.0000
     21 C21        -3.4763    4.9888    2.4266 C.3       1 <0>         0.0000
     22 C22         4.2364    1.3323    3.1901 C.3       1 <0>         0.0000
     23 C23         5.0941    2.7769    4.9242 C.3       1 <0>         0.0000
     24 C24        -2.7724    1.6834    2.2387 C.3       1 <0>         0.0000
     25 C25         4.2424   -2.2744    5.0411 C.3       1 <0>         0.0000
     26 C26        -2.0273    0.4111    2.6290 C.3       1 <0>         0.0000
     27 N1         -0.4975    2.7621    2.3958 N.2       1 <0>         0.0000
     28 N2          4.6001    2.7001    3.5465 N.pl3     1 <0>         0.0000
     29 O1          5.5865   -2.9556    6.9474 O.2       1 <0>         0.0000
     30 O2         -1.0210    4.9246    2.5339 O.3       1 <0>         0.0000
     31 O3          6.5354   -3.1039    4.9344 O.3       1 <0>         0.0000
     32 O4         -1.6084    0.5465    3.9914 O.3       1 <0>         0.0000
     33 H1          1.0466    6.4882    2.3352 H         1 <0>         0.0000
     34 H2          1.5633   -2.7589    3.7748 H         1 <0>         0.0000
     35 H3          3.4422    7.0534    2.6244 H         1 <0>         0.0000
     36 H4         -0.5198   -1.7168    2.9637 H         1 <0>         0.0000
     37 H5          1.9403    2.3722    3.1357 H         1 <0>         0.0000
     38 H6         -0.1227    1.4432    5.8581 H         1 <0>         0.0000
     39 H7          2.5162    1.4374    7.0256 H         1 <0>         0.0000
     40 H8          1.8807    0.0991    7.9791 H         1 <0>         0.0000
     41 H9          4.3130    0.1173    6.1500 H         1 <0>         0.0000
     42 H10         4.1565   -0.7179    7.6949 H         1 <0>         0.0000
     43 H11         2.9297   -2.5196    6.7075 H         1 <0>         0.0000
     44 H12         5.8059    5.7207    4.1862 H         1 <0>         0.0000
     45 H13         6.1737    4.6032    2.8686 H         1 <0>         0.0000
     46 H14         5.7460    6.2952    2.5221 H         1 <0>         0.0000
     47 H15        -3.5658    5.6055    3.3279 H         1 <0>         0.0000
     48 H16        -3.5460    5.6542    1.5582 H         1 <0>         0.0000
     49 H17        -4.3252    4.3014    2.3959 H         1 <0>         0.0000
     50 H18         5.1277    0.7026    3.2901 H         1 <0>         0.0000
     51 H19         3.9068    1.2943    2.1488 H         1 <0>         0.0000
     52 H20         3.4430    0.9000    3.8216 H         1 <0>         0.0000
     53 H21         5.9443    2.0973    5.0453 H         1 <0>         0.0000
     54 H22         4.3183    2.4995    5.6576 H         1 <0>         0.0000
     55 H23         5.4330    3.7860    5.1589 H         1 <0>         0.0000
     56 H24        -3.6514    1.8062    2.8804 H         1 <0>         0.0000
     57 H25        -3.1418    1.5553    1.2127 H         1 <0>         0.0000
     58 H26         3.8366   -3.1092    4.4538 H         1 <0>         0.0000
     59 H27         4.5303   -1.5014    4.3172 H         1 <0>         0.0000
     60 H28        -2.6813   -0.4642    2.5229 H         1 <0>         0.0000
     61 H29        -1.1527    0.2847    1.9849 H         1 <0>         0.0000
     62 H30         6.2976   -2.9188    4.0099 H         1 <0>         0.0000
@<TRIPOS>BOND
     1    1    3 ar
     2    1    7 ar
     3    1   33 1
     4    2    4 ar
     5    2    8 ar
     6    2   34 1
     7    3   10 ar
     8    3   35 1
     9    4   12 ar
    10    4   36 1
    11    5    7 ar
    12    5   11 ar
    13    5   37 1
    14    6    9 ar
    15    6   12 ar
    16    6   38 1
    17    7   15 1
    18    8    9 ar
    19    8   19 1
    20    9   17 1
    21   10   11 ar
    22   10   20 1
    23   11   28 1
    24   12   32 1
    25   13   14 2
    26   13   24 1
    27   13   27 1
    28   14   21 1
    29   14   30 1
    30   15   27 2
    31   15   30 1
    32   16   25 1
    33   16   29 2
    34   16   31 1
    35   17   18 1
    36   17   39 1
    37   17   40 1
    38   18   19 1
    39   18   41 1
    40   18   42 1
    41   19   25 1
    42   19   43 1
    43   20   44 1
    44   20   45 1
    45   20   46 1
    46   21   47 1
    47   21   48 1
    48   21   49 1
    49   22   28 1
    50   22   50 1
    51   22   51 1
    52   22   52 1
    53   23   28 1
    54   23   53 1
    55   23   54 1
    56   23   55 1
    57   24   26 1
    58   24   56 1
    59   24   57 1
    60   25   58 1
    61   25   59 1
    62   26   32 1
    63   26   60 1
    64   26   61 1
    65   31   62 1
