@<TRIPOS>MOLECULE
*****
   61    65     0     0     0
SMALL
NO_CHARGES

@<TRIPOS>ATOM
      1 C1          0.4465    5.4000    5.9644 C.ar      1 <0>         0.0000
      2 C2          0.1788    4.9846    7.2735 C.ar      1 <0>         0.0000
      3 C3         -6.1452    1.4698    2.6283 C.ar      1 <0>         0.0000
      4 C4         -4.8472    1.2254    2.1913 C.ar      1 <0>         0.0000
      5 C5         -0.5957    5.4962    5.0400 C.ar      1 <0>         0.0000
      6 C6         -1.1269    4.6610    7.6575 C.ar      1 <0>         0.0000
      7 C7         -6.4293    2.6048    3.4263 C.ar      1 <0>         0.0000
      8 C8         -3.8635    2.1482    2.5826 C.ar      1 <0>         0.0000
      9 C9          0.4427    0.1121    0.4025 C.ar      1 <0>         0.0000
     10 C10        -1.9142    5.1818    5.3987 C.ar      1 <0>         0.0000
     11 C11        -2.1396    4.7619    6.7104 C.ar      1 <0>         0.0000
     12 C12        -2.4533    2.3487    2.4199 C.2       1 <0>         0.0000
     13 C13         0.7751    1.1631    1.2431 C.ar      1 <0>         0.0000
     14 C14        -4.2808    3.2428    3.3887 C.ar      1 <0>         0.0000
     15 C15        -0.9476   -0.1518    0.3232 C.ar      1 <0>         0.0000
     16 C16        -1.4603    1.5369    1.7136 C.ar      1 <0>         0.0000
     17 C17         0.0262   -1.7508   -1.0179 C.2       1 <0>         0.0000
     18 C18         2.1876    1.6318    1.5276 C.2       1 <0>         0.0000
     19 C19         1.1853   -0.8844   -0.4675 C.3       1 <0>         0.0000
     20 C20         2.1500   -1.7897    0.3227 C.3       1 <0>         0.0000
     21 C21         1.9011   -0.2227   -1.6639 C.3       1 <0>         0.0000
     22 C22         3.5295    6.9211    1.1898 C.3       1 <0>         0.0000
     23 C23        -3.0412    5.2400    4.3954 C.3       1 <0>         0.0000
     24 C24         3.4853    3.1959    2.9135 C.3       1 <0>         0.0000
     25 C25         3.8905    4.3164    1.9529 C.3       1 <0>         0.0000
     26 N1         -5.5211    3.5022    3.8165 N.ar      1 <0>         0.0000
     27 N2         -2.0663    3.4570    3.0558 N.2       1 <0>         0.0000
     28 N3         -0.1810    1.8613    1.8894 N.ar      1 <0>         0.0000
     29 N4         -1.9112    0.5151    0.9404 N.ar      1 <0>         0.0000
     30 N5         -3.1546    3.9895    3.6397 N.pl3     1 <0>         0.0000
     31 N6         -1.1676   -1.2350   -0.5096 N.am      1 <0>         0.0000
     32 N7          2.2475    2.5444    2.5277 N.am      1 <0>         0.0000
     33 O1          0.1099   -2.7081   -1.7632 O.2       1 <0>         0.0000
     34 O2          3.1733    1.2174    0.9083 O.2       1 <0>         0.0000
     35 O3          2.1917    5.9205    3.3024 O.2       1 <0>         0.0000
     36 F1         -3.4094    4.4342    7.0824 F         1 <0>         0.0000
     37 S1          2.5158    5.5501    1.8577 S.o       1 <0>         0.0000
     38 H1          1.4531    5.6461    5.6422 H         1 <0>         0.0000
     39 H2          0.9832    4.9098    8.0008 H         1 <0>         0.0000
     40 H3         -6.9566    0.7986    2.3631 H         1 <0>         0.0000
     41 H4         -4.5951    0.3696    1.5741 H         1 <0>         0.0000
     42 H5         -0.3667    5.8023    4.0239 H         1 <0>         0.0000
     43 H6         -1.3668    4.3343    8.6648 H         1 <0>         0.0000
     44 H7         -7.4498    2.7858    3.7592 H         1 <0>         0.0000
     45 H8          2.5146   -2.5864   -0.3316 H         1 <0>         0.0000
     46 H9          1.6478   -2.2500    1.1797 H         1 <0>         0.0000
     47 H10         2.9924   -1.1969    0.6820 H         1 <0>         0.0000
     48 H11         2.2709   -1.0005   -2.3379 H         1 <0>         0.0000
     49 H12         2.7351    0.3767   -1.2970 H         1 <0>         0.0000
     50 H13         1.2178    0.4236   -2.2246 H         1 <0>         0.0000
     51 H14         2.8634    7.7744    1.0473 H         1 <0>         0.0000
     52 H15         3.9711    6.6276    0.2331 H         1 <0>         0.0000
     53 H16         4.3027    7.1703    1.9209 H         1 <0>         0.0000
     54 H17        -4.0083    5.3918    4.8753 H         1 <0>         0.0000
     55 H18        -2.8699    6.0549    3.6856 H         1 <0>         0.0000
     56 H19         3.3512    3.6073    3.9155 H         1 <0>         0.0000
     57 H20         4.2867    2.4526    2.9394 H         1 <0>         0.0000
     58 H21         4.0644    3.9302    0.9446 H         1 <0>         0.0000
     59 H22         4.7883    4.8239    2.3206 H         1 <0>         0.0000
     60 H23        -2.0816   -1.6192   -0.7207 H         1 <0>         0.0000
     61 H24         1.3553    2.8572    2.9070 H         1 <0>         0.0000
@<TRIPOS>BOND
     1    1    2 ar
     2    1    5 ar
     3    1   38 1
     4    2    6 ar
     5    2   39 1
     6    3    4 ar
     7    3    7 ar
     8    3   40 1
     9    4    8 ar
    10    4   41 1
    11    5   10 ar
    12    5   42 1
    13    6   11 ar
    14    6   43 1
    15    7   26 ar
    16    7   44 1
    17    8   12 1
    18    8   14 ar
    19    9   13 ar
    20    9   15 ar
    21    9   19 1
    22   10   11 ar
    23   10   23 1
    24   11   36 1
    25   12   16 1
    26   12   27 2
    27   13   18 1
    28   13   28 ar
    29   14   26 ar
    30   14   30 1
    31   15   29 ar
    32   15   31 1
    33   16   28 ar
    34   16   29 ar
    35   17   19 1
    36   17   31 am
    37   17   33 2
    38   18   32 am
    39   18   34 2
    40   19   20 1
    41   19   21 1
    42   20   45 1
    43   20   46 1
    44   20   47 1
    45   21   48 1
    46   21   49 1
    47   21   50 1
    48   22   37 1
    49   22   51 1
    50   22   52 1
    51   22   53 1
    52   23   30 1
    53   23   54 1
    54   23   55 1
    55   24   25 1
    56   24   32 1
    57   24   56 1
    58   24   57 1
    59   25   37 1
    60   25   58 1
    61   25   59 1
    62   27   30 1
    63   31   60 1
    64   32   61 1
    65   35   37 2
