@<TRIPOS>MOLECULE
*****
   66    70     0     0     0
SMALL
NO_CHARGES

@<TRIPOS>ATOM
      1 C1          1.4778    4.7710   -8.9883 C.ar      1 <0>         0.0000
      2 C2          0.1305    3.0678  -10.0877 C.ar      1 <0>         0.0000
      3 C3          0.9876    5.7240   -9.8831 C.ar      1 <0>         0.0000
      4 C4         -0.3435    4.0248  -10.9759 C.ar      1 <0>         0.0000
      5 C5          1.6898    2.6291  -13.8197 C.ar      1 <0>         0.0000
      6 C6          1.3183    3.9571  -13.9949 C.ar      1 <0>         0.0000
      7 C7          2.8812    4.6021  -12.2452 C.ar      1 <0>         0.0000
      8 C8          3.2496    3.2703  -12.0455 C.ar      1 <0>         0.0000
      9 C9          1.0810    3.4354   -9.1258 C.ar      1 <0>         0.0000
     10 C10         0.1208    5.3473  -10.9154 C.ar      1 <0>         0.0000
     11 C11         2.6067    2.2838  -12.8136 C.ar      1 <0>         0.0000
     12 C12         1.9020    4.9354  -13.1794 C.ar      1 <0>         0.0000
     13 C13         2.8814    2.4968   -7.5967 C.2       1 <0>         0.0000
     14 C14         3.5817   -0.8848  -11.2711 C.2       1 <0>         0.0000
     15 C15         4.2787    2.9062  -10.9972 C.3       1 <0>         0.0000
     16 C16         4.5826    1.4034  -10.9927 C.3       1 <0>         0.0000
     17 C17         1.1179   -0.1770   -1.3840 C.3       1 <0>         0.0000
     18 C18         1.5155    1.2316   -0.8484 C.3       1 <0>         0.0000
     19 C19         1.6509   -0.2455   -2.8360 C.3       1 <0>         0.0000
     20 C20         2.1757    1.9567   -2.0396 C.3       1 <0>         0.0000
     21 C21         3.3043    0.6191  -11.3079 C.3       1 <0>         0.0000
     22 C22         2.7558    0.8261   -2.9069 C.3       1 <0>         0.0000
     23 C23         3.1429    1.2680   -4.3195 C.3       1 <0>         0.0000
     24 C24         3.7504    0.1443   -5.1671 C.3       1 <0>         0.0000
     25 C25         4.2248    0.6116   -6.5457 C.3       1 <0>         0.0000
     26 N1          1.3362    1.1094   -8.5168 N.2       1 <0>         0.0000
     27 N2          2.1879    0.3664   -7.9131 N.2       1 <0>         0.0000
     28 N3          1.7046    2.4122   -8.3542 N.am      1 <0>         0.0000
     29 N4          3.1352    1.1568   -7.3530 N.am      1 <0>         0.0000
     30 N5         -0.1697    6.2686  -11.9621 N.pl3     1 <0>         0.0000
     31 O1          3.5330    3.4722   -7.2529 O.2       1 <0>         0.0000
     32 O2          4.0392   -1.5004  -12.2009 O.2       1 <0>         0.0000
     33 O3          0.5017    6.9201  -14.3187 O.2       1 <0>         0.0000
     34 O4          2.0925    7.4374  -12.3728 O.2       1 <0>         0.0000
     35 O5          2.8272    0.9472  -12.6166 O.3       1 <0>         0.0000
     36 O6          3.3586   -1.4819  -10.0700 O.3       1 <0>         0.0000
     37 S1          1.1566    6.5536  -13.0627 S.o2      1 <0>         0.0000
     38 H1          2.1923    5.0529   -8.2256 H         1 <0>         0.0000
     39 H2         -0.1866    2.0359  -10.1755 H         1 <0>         0.0000
     40 H3          1.3276    6.7528   -9.8277 H         1 <0>         0.0000
     41 H4         -1.0214    3.7229  -11.7698 H         1 <0>         0.0000
     42 H5          1.2505    1.8364  -14.4177 H         1 <0>         0.0000
     43 H6          0.5728    4.2345  -14.7342 H         1 <0>         0.0000
     44 H7          3.3322    5.3844  -11.6433 H         1 <0>         0.0000
     45 H8          5.1997    3.4700  -11.1783 H         1 <0>         0.0000
     46 H9          3.9186    3.2295  -10.0152 H         1 <0>         0.0000
     47 H10         5.3165    1.1475  -11.7626 H         1 <0>         0.0000
     48 H11         4.9931    1.0927  -10.0266 H         1 <0>         0.0000
     49 H12         1.5730   -0.9612   -0.7710 H         1 <0>         0.0000
     50 H13         0.0369   -0.3404   -1.3487 H         1 <0>         0.0000
     51 H14         0.6573    1.7859   -0.4574 H         1 <0>         0.0000
     52 H15         2.2304    1.1351   -0.0247 H         1 <0>         0.0000
     53 H16         2.0017   -1.2468   -3.1047 H         1 <0>         0.0000
     54 H17         0.8563    0.0190   -3.5465 H         1 <0>         0.0000
     55 H18         1.4196    2.4999   -2.6218 H         1 <0>         0.0000
     56 H19         2.9316    2.6862   -1.7308 H         1 <0>         0.0000
     57 H20         2.5133    0.8764  -10.5946 H         1 <0>         0.0000
     58 H21         3.6528    0.4339   -2.4037 H         1 <0>         0.0000
     59 H22         2.2488    1.6647   -4.8189 H         1 <0>         0.0000
     60 H23         3.8548    2.1012   -4.2614 H         1 <0>         0.0000
     61 H24         4.6203   -0.2826   -4.6531 H         1 <0>         0.0000
     62 H25         3.0308   -0.6706   -5.2982 H         1 <0>         0.0000
     63 H26         4.6760   -0.2086   -7.1108 H         1 <0>         0.0000
     64 H27         4.9545    1.4208   -6.4615 H         1 <0>         0.0000
     65 H28        -0.9638    5.9833  -12.5344 H         1 <0>         0.0000
     66 H29         2.8865   -0.8981   -9.4417 H         1 <0>         0.0000
@<TRIPOS>BOND
     1    1    3 ar
     2    1    9 ar
     3    1   38 1
     4    2    4 ar
     5    2    9 ar
     6    2   39 1
     7    3   10 ar
     8    3   40 1
     9    4   10 ar
    10    4   41 1
    11    5    6 ar
    12    5   11 ar
    13    5   42 1
    14    6   12 ar
    15    6   43 1
    16    7    8 ar
    17    7   12 ar
    18    7   44 1
    19    8   11 ar
    20    8   15 1
    21    9   28 1
    22   10   30 1
    23   11   35 1
    24   12   37 1
    25   13   28 am
    26   13   29 am
    27   13   31 2
    28   14   21 1
    29   14   32 2
    30   14   36 1
    31   15   16 1
    32   15   45 1
    33   15   46 1
    34   16   21 1
    35   16   47 1
    36   16   48 1
    37   17   18 1
    38   17   19 1
    39   17   49 1
    40   17   50 1
    41   18   20 1
    42   18   51 1
    43   18   52 1
    44   19   22 1
    45   19   53 1
    46   19   54 1
    47   20   22 1
    48   20   55 1
    49   20   56 1
    50   21   35 1
    51   21   57 1
    52   22   23 1
    53   22   58 1
    54   23   24 1
    55   23   59 1
    56   23   60 1
    57   24   25 1
    58   24   61 1
    59   24   62 1
    60   25   29 1
    61   25   63 1
    62   25   64 1
    63   26   27 2
    64   26   28 1
    65   27   29 1
    66   30   37 1
    67   30   65 1
    68   33   37 2
    69   34   37 2
    70   36   66 1
