@<TRIPOS>MOLECULE
*****
   66    69     0     0     0
SMALL
NO_CHARGES

@<TRIPOS>ATOM
      1 C1         -0.7691    2.2688   -0.0165 C.ar      1 <0>         0.0000
      2 C2         -2.6192    1.3439   -1.3435 C.ar      1 <0>         0.0000
      3 C3         -1.0884   -0.0824   -0.0874 C.ar      1 <0>         0.0000
      4 C4         -0.3484    1.0068    0.3899 C.ar      1 <0>         0.0000
      5 C5         -0.8574   -1.4679    0.1476 C.2       1 <0>         0.0000
      6 C6         -1.8950    2.4427   -0.8715 C.ar      1 <0>         0.0000
      7 C7         -2.2013    0.0645   -0.9424 C.ar      1 <0>         0.0000
      8 C8         -1.8254   -2.1527   -0.5573 C.2       1 <0>         0.0000
      9 C9          4.1158    1.5472    4.1845 C.2       1 <0>         0.0000
     10 C10         0.2606   -1.8641    1.0607 C.3       1 <0>         0.0000
     11 C11         1.9963    1.6729    1.0991 C.3       1 <0>         0.0000
     12 C12         3.6176   -0.1805    1.6091 C.3       1 <0>         0.0000
     13 C13         0.8406    0.6700    1.2791 C.3       1 <0>         0.0000
     14 C14         1.3648   -0.7824    1.0019 C.3       1 <0>         0.0000
     15 C15         3.2565    1.2924    1.8822 C.3       1 <0>         0.0000
     16 C16        -2.2967    3.8461   -1.2700 C.3       1 <0>         0.0000
     17 C17         3.0629   -2.4381    5.4156 C.3       1 <0>         0.0000
     18 C18         5.3361    0.2404    6.9799 C.3       1 <0>         0.0000
     19 C19         1.8402    3.0368    6.0744 C.3       1 <0>         0.0000
     20 C20        -3.1996   -4.1908    0.7208 C.3       1 <0>         0.0000
     21 C21         3.4643   -1.9033    4.0368 C.3       1 <0>         0.0000
     22 C22         2.2348   -1.5050    3.2157 C.3       1 <0>         0.0000
     23 C23         4.9205    1.6288    6.4850 C.3       1 <0>         0.0000
     24 C24         2.4520    1.6294    6.0651 C.3       1 <0>         0.0000
     25 N1         -2.6550   -1.2138   -1.2072 N.pl3     1 <0>         0.0000
     26 N2          2.5287   -1.1355    1.8272 N.3       1 <0>         0.0000
     27 N3          3.0534    1.5889    3.3048 N.am      1 <0>         0.0000
     28 N4          3.8092    1.5822    5.5318 N.am      1 <0>         0.0000
     29 O1          5.2851    1.4921    3.7799 O.2       1 <0>         0.0000
     30 S1         -2.1049   -3.8796   -0.7251 S.3       1 <0>         0.0000
     31 H1         -0.2355    3.1593    0.3072 H         1 <0>         0.0000
     32 H2         -3.4718    1.4889   -2.0028 H         1 <0>         0.0000
     33 H3         -0.1301   -1.9478    2.0818 H         1 <0>         0.0000
     34 H4          0.6897   -2.8359    0.7985 H         1 <0>         0.0000
     35 H5          2.2512    1.7072    0.0335 H         1 <0>         0.0000
     36 H6          1.6836    2.6833    1.3822 H         1 <0>         0.0000
     37 H7          3.9128   -0.2570    0.5534 H         1 <0>         0.0000
     38 H8          4.4909   -0.4582    2.1967 H         1 <0>         0.0000
     39 H9          0.4901    0.6988    2.3229 H         1 <0>         0.0000
     40 H10         1.7280   -0.7748   -0.0357 H         1 <0>         0.0000
     41 H11         4.0926    1.9139    1.5493 H         1 <0>         0.0000
     42 H12        -1.4767    4.3633   -1.7816 H         1 <0>         0.0000
     43 H13        -3.1595    3.8416   -1.9419 H         1 <0>         0.0000
     44 H14        -2.5598    4.4478   -0.3921 H         1 <0>         0.0000
     45 H15         2.5144   -1.6807    5.9880 H         1 <0>         0.0000
     46 H16         2.4217   -3.3235    5.3337 H         1 <0>         0.0000
     47 H17         3.9450   -2.7156    6.0009 H         1 <0>         0.0000
     48 H18         4.4987   -0.2832    7.4538 H         1 <0>         0.0000
     49 H19         5.6896   -0.3651    6.1411 H         1 <0>         0.0000
     50 H20         6.1458    0.3209    7.7139 H         1 <0>         0.0000
     51 H21         2.4528    3.7159    6.6757 H         1 <0>         0.0000
     52 H22         1.7821    3.4478    5.0623 H         1 <0>         0.0000
     53 H23         0.8306    3.0175    6.5000 H         1 <0>         0.0000
     54 H24        -3.4489   -5.2553    0.7043 H         1 <0>         0.0000
     55 H25        -4.1170   -3.6030    0.6482 H         1 <0>         0.0000
     56 H26        -2.6775   -3.9551    1.6503 H         1 <0>         0.0000
     57 H27         4.0227   -2.6671    3.4825 H         1 <0>         0.0000
     58 H28         4.1381   -1.0549    4.1719 H         1 <0>         0.0000
     59 H29         1.5726   -2.3756    3.1894 H         1 <0>         0.0000
     60 H30         1.6802   -0.7253    3.7714 H         1 <0>         0.0000
     61 H31         5.7635    2.1151    5.9931 H         1 <0>         0.0000
     62 H32         4.6159    2.2611    7.3270 H         1 <0>         0.0000
     63 H33         1.8058    0.9308    5.5205 H         1 <0>         0.0000
     64 H34         2.4902    1.2382    7.0863 H         1 <0>         0.0000
     65 H35        -3.3700   -1.4734   -1.8725 H         1 <0>         0.0000
     66 H36         2.1194    1.4579    3.6614 H         1 <0>         0.0000
@<TRIPOS>BOND
     1    1    4 ar
     2    1    6 ar
     3    1   31 1
     4    2    6 ar
     5    2    7 ar
     6    2   32 1
     7    3    4 ar
     8    3    5 1
     9    3    7 ar
    10    4   13 1
    11    5    8 2
    12    5   10 1
    13    6   16 1
    14    7   25 1
    15    8   25 1
    16    8   30 1
    17    9   27 am
    18    9   28 am
    19    9   29 2
    20   10   14 1
    21   10   33 1
    22   10   34 1
    23   11   13 1
    24   11   15 1
    25   11   35 1
    26   11   36 1
    27   12   15 1
    28   12   26 1
    29   12   37 1
    30   12   38 1
    31   13   14 1
    32   13   39 1
    33   14   26 1
    34   14   40 1
    35   15   27 1
    36   15   41 1
    37   16   42 1
    38   16   43 1
    39   16   44 1
    40   17   21 1
    41   17   45 1
    42   17   46 1
    43   17   47 1
    44   18   23 1
    45   18   48 1
    46   18   49 1
    47   18   50 1
    48   19   24 1
    49   19   51 1
    50   19   52 1
    51   19   53 1
    52   20   30 1
    53   20   54 1
    54   20   55 1
    55   20   56 1
    56   21   22 1
    57   21   57 1
    58   21   58 1
    59   22   26 1
    60   22   59 1
    61   22   60 1
    62   23   28 1
    63   23   61 1
    64   23   62 1
    65   24   28 1
    66   24   63 1
    67   24   64 1
    68   25   65 1
    69   27   66 1
