@<TRIPOS>MOLECULE
*****
   50    50     0     0     0
SMALL
NO_CHARGES

@<TRIPOS>ATOM
      1 C1         -5.7256   -0.0905    1.6149 C.2       1 <0>         0.0000
      2 C2         -4.7560   -2.9274    0.3371 C.2       1 <0>         0.0000
      3 C3         -5.8647    0.4941    3.0113 C.3       1 <0>         0.0000
      4 C4         -4.4635    0.3579    3.6281 C.3       1 <0>         0.0000
      5 C5         -3.7839   -0.7764    2.8165 C.3       1 <0>         0.0000
      6 C6         -6.2297   -5.6617    2.9806 C.3       1 <0>         0.0000
      7 C7         -7.8877   -7.1840    1.8677 C.3       1 <0>         0.0000
      8 C8         -4.6196   -8.8699   -0.4287 C.3       1 <0>         0.0000
      9 C9         -6.6358   -7.5677   -1.2612 C.3       1 <0>         0.0000
     10 C10        -4.1500   -1.5223    0.3904 C.3       1 <0>         0.0000
     11 C11        -4.7350   -5.1294   -0.6893 C.3       1 <0>         0.0000
     12 C12        -4.4067   -6.0235    0.5284 C.3       1 <0>         0.0000
     13 C13        -6.7024   -6.2446    1.6479 C.3       1 <0>         0.0000
     14 C14        -5.8683   -8.0778   -0.0430 C.3       1 <0>         0.0000
     15 C15        -3.8106   -2.1123    3.5655 C.3       1 <0>         0.0000
     16 N1         -4.5314   -0.8007    1.5754 N.am      1 <0>         0.0000
     17 N2         -4.1487   -3.8112   -0.5166 N.am      1 <0>         0.0000
     18 N3         -5.5054   -6.9770    0.9732 N.4       1 <0>         0.0000
     19 O1         -6.4835    0.0179    0.6670 O.2       1 <0>         0.0000
     20 O2         -5.7333   -3.2641    0.9987 O.2       1 <0>         0.0000
     21 F1         -3.0544   -2.0468    4.6809 F         1 <0>         0.0000
     22 F2         -5.0530   -2.4933    3.9299 F         1 <0>         0.0000
     23 F3         -3.2919   -3.1236    2.7988 F         1 <0>         0.0000
     24 H1         -6.2232    1.5226    2.9541 H         1 <0>         0.0000
     25 H2         -6.6156   -0.0933    3.5483 H         1 <0>         0.0000
     26 H3         -3.8898    1.2750    3.4794 H         1 <0>         0.0000
     27 H4         -4.4752    0.1447    4.6976 H         1 <0>         0.0000
     28 H5         -2.7231   -0.5686    2.6360 H         1 <0>         0.0000
     29 H6         -5.9003   -6.4531    3.6656 H         1 <0>         0.0000
     30 H7         -5.4496   -4.9116    2.8725 H         1 <0>         0.0000
     31 H8         -7.0755   -5.1537    3.4488 H         1 <0>         0.0000
     32 H9         -7.6240   -8.0334    2.5076 H         1 <0>         0.0000
     33 H10        -8.3359   -7.5577    0.9465 H         1 <0>         0.0000
     34 H11        -8.6611   -6.6170    2.3913 H         1 <0>         0.0000
     35 H12        -3.9536   -8.3075   -1.0879 H         1 <0>         0.0000
     36 H13        -4.0523   -9.2059    0.4464 H         1 <0>         0.0000
     37 H14        -4.9347   -9.7642   -0.9725 H         1 <0>         0.0000
     38 H15        -5.9825   -7.0876   -1.9908 H         1 <0>         0.0000
     39 H16        -7.4412   -6.8778   -1.0038 H         1 <0>         0.0000
     40 H17        -7.0904   -8.4312   -1.7543 H         1 <0>         0.0000
     41 H18        -3.0593   -1.5676    0.3096 H         1 <0>         0.0000
     42 H19        -4.5383   -0.9701   -0.4733 H         1 <0>         0.0000
     43 H20        -4.3398   -5.5638   -1.6084 H         1 <0>         0.0000
     44 H21        -5.8125   -5.0123   -0.8076 H         1 <0>         0.0000
     45 H22        -4.1977   -5.3885    1.3839 H         1 <0>         0.0000
     46 H23        -3.5206   -6.6307    0.3437 H         1 <0>         0.0000
     47 H24        -6.9664   -5.4305    0.9746 H         1 <0>         0.0000
     48 H25        -6.5189   -8.7369    0.5316 H         1 <0>         0.0000
     49 H26        -3.3705   -3.5232   -1.0955 H         1 <0>         0.0000
     50 H27        -5.0765   -7.5001    1.7440 H         1 <0>         0.0000
@<TRIPOS>BOND
     1    1    3 1
     2    1   16 am
     3    1   19 2
     4    2   10 1
     5    2   17 am
     6    2   20 2
     7    3    4 1
     8    3   24 1
     9    3   25 1
    10    4    5 1
    11    4   26 1
    12    4   27 1
    13    5   15 1
    14    5   16 1
    15    5   28 1
    16    6   13 1
    17    6   29 1
    18    6   30 1
    19    6   31 1
    20    7   13 1
    21    7   32 1
    22    7   33 1
    23    7   34 1
    24    8   14 1
    25    8   35 1
    26    8   36 1
    27    8   37 1
    28    9   14 1
    29    9   38 1
    30    9   39 1
    31    9   40 1
    32   10   16 1
    33   10   41 1
    34   10   42 1
    35   11   12 1
    36   11   17 1
    37   11   43 1
    38   11   44 1
    39   12   18 1
    40   12   45 1
    41   12   46 1
    42   13   18 1
    43   13   47 1
    44   14   18 1
    45   14   48 1
    46   15   21 1
    47   15   22 1
    48   15   23 1
    49   17   49 1
    50   18   50 1
