@<TRIPOS>MOLECULE
*****
   37    39     0     0     0
SMALL
NO_CHARGES

@<TRIPOS>ATOM
      1 C1         -1.9584   -5.6539    3.2898 C.ar      1 <0>         0.0000
      2 C2         -0.7036    1.3640    1.5041 C.ar      1 <0>         0.0000
      3 C3         -2.6888   -4.8412    4.1568 C.ar      1 <0>         0.0000
      4 C4         -1.9899   -5.4138    1.9161 C.ar      1 <0>         0.0000
      5 C5         -0.7671    0.1975    0.7446 C.ar      1 <0>         0.0000
      6 C6         -1.6773    1.6439    2.4698 C.ar      1 <0>         0.0000
      7 C7         -3.4505   -3.7882    3.6502 C.ar      1 <0>         0.0000
      8 C8         -2.7516   -4.3608    1.4095 C.ar      1 <0>         0.0000
      9 C9         -1.8022   -0.7245    0.9247 C.ar      1 <0>         0.0000
     10 C10        -4.5471   -0.4724    3.2738 C.2       1 <0>         0.0000
     11 C11        -2.7304    0.7292    2.6692 C.ar      1 <0>         0.0000
     12 C12        -3.4820   -3.5480    2.2765 C.ar      1 <0>         0.0000
     13 C13        -3.8586    0.6897    3.5356 C.2       1 <0>         0.0000
     14 C14        -2.7685   -0.4315    1.8936 C.ar      1 <0>         0.0000
     15 C15        -4.2328    1.7079    4.5380 C.3       1 <0>         0.0000
     16 C16        -4.3038   -2.4117    1.7306 C.3       1 <0>         0.0000
     17 C17        -4.8706    2.9742    3.9383 C.3       1 <0>         0.0000
     18 N1         -3.8818   -1.1421    2.2822 N.pl3     1 <0>         0.0000
     19 N2         -5.2043    3.9432    4.9475 N.3       1 <0>         0.0000
     20 H1         -1.3663   -6.4747    3.6840 H         1 <0>         0.0000
     21 H2          0.1109    2.0659    1.3456 H         1 <0>         0.0000
     22 H3         -2.6654   -5.0286    5.2262 H         1 <0>         0.0000
     23 H4         -1.4221   -6.0472    1.2408 H         1 <0>         0.0000
     24 H5         -0.0005   -0.0002   -0.0005 H         1 <0>         0.0000
     25 H6         -1.6142    2.5575    3.0539 H         1 <0>         0.0000
     26 H7         -4.0163   -3.1602    4.3333 H         1 <0>         0.0000
     27 H8         -2.7700   -4.1810    0.3378 H         1 <0>         0.0000
     28 H9         -1.8465   -1.6310    0.3306 H         1 <0>         0.0000
     29 H10        -5.4527   -0.8758    3.7075 H         1 <0>         0.0000
     30 H11        -3.3399    2.0186    5.1156 H         1 <0>         0.0000
     31 H12        -4.9232    1.2901    5.2984 H         1 <0>         0.0000
     32 H13        -4.2244   -2.3547    0.6382 H         1 <0>         0.0000
     33 H14        -5.3681   -2.5474    1.9584 H         1 <0>         0.0000
     34 H15        -4.1846    3.4670    3.2421 H         1 <0>         0.0000
     35 H16        -5.7907    2.7313    3.3966 H         1 <0>         0.0000
     36 H17        -4.3712    4.2359    5.4161 H         1 <0>         0.0000
     37 H18        -5.6410    4.7331    4.5180 H         1 <0>         0.0000
@<TRIPOS>BOND
     1    1    4 ar
     2    1    3 ar
     3    1   20 1
     4    2    5 ar
     5    2    6 ar
     6    2   21 1
     7    3    7 ar
     8    3   22 1
     9    4    8 ar
    10    4   23 1
    11    5    9 ar
    12    5   24 1
    13    6   11 ar
    14    6   25 1
    15    7   12 ar
    16    7   26 1
    17    8   12 ar
    18    8   27 1
    19    9   14 ar
    20    9   28 1
    21   10   13 2
    22   10   18 1
    23   10   29 1
    24   11   13 1
    25   11   14 ar
    26   12   16 1
    27   13   15 1
    28   14   18 1
    29   15   17 1
    30   15   30 1
    31   15   31 1
    32   16   18 1
    33   16   32 1
    34   16   33 1
    35   17   19 1
    36   17   34 1
    37   17   35 1
    38   19   36 1
    39   19   37 1
