@<TRIPOS>MOLECULE
*****
   37    38     0     0     0
SMALL
NO_CHARGES

@<TRIPOS>ATOM
      1 C1          0.4736   -1.2009   -0.4416 C.2       1 <0>         0.0000
      2 C2         -0.9216    1.4515    2.7002 C.2       1 <0>         0.0000
      3 C3         -0.1114   -0.2668   -3.1683 C.3       1 <0>         0.0000
      4 C4         -1.0580    0.0524   -2.0262 C.3       1 <0>         0.0000
      5 C5          0.6939    1.2914   -0.6386 C.3       1 <0>         0.0000
      6 C6          0.5523   -1.6080   -2.9278 C.3       1 <0>         0.0000
      7 C7          0.7984    1.6220    0.8451 C.3       1 <0>         0.0000
      8 C8         -1.2582    0.4306    0.4593 C.3       1 <0>         0.0000
      9 C9         -0.2990    0.1093   -0.6996 C.3       1 <0>         0.0000
     10 C10         1.9066   -2.9720   -1.3777 C.3       1 <0>         0.0000
     11 C11         0.8874    4.6787    4.5088 C.3       1 <0>         0.0000
     12 C12         0.0111    2.2569    3.5690 C.3       1 <0>         0.0000
     13 N1          1.0307   -1.8224   -1.5631 N.am      1 <0>         0.0000
     14 N2         -0.4710    1.1957    1.4170 N.am      1 <0>         0.0000
     15 O1          0.6571   -1.6028    0.7113 O.2       1 <0>         0.0000
     16 O2         -2.0072    1.0679    3.1390 O.2       1 <0>         0.0000
     17 S1         -0.3577    4.0096    3.3790 S.3       1 <0>         0.0000
     18 H1         -0.6642   -0.2942   -4.1142 H         1 <0>         0.0000
     19 H2          0.6488    0.5159   -3.2717 H         1 <0>         0.0000
     20 H3         -1.5596    1.0067   -2.2283 H         1 <0>         0.0000
     21 H4         -1.8428   -0.7137   -1.9765 H         1 <0>         0.0000
     22 H5          0.2938    2.1611   -1.1745 H         1 <0>         0.0000
     23 H6          1.6775    1.0550   -1.0577 H         1 <0>         0.0000
     24 H7         -0.1631   -2.4130   -3.1367 H         1 <0>         0.0000
     25 H8          1.3955   -1.7261   -3.6177 H         1 <0>         0.0000
     26 H9          1.5970    1.0493    1.3287 H         1 <0>         0.0000
     27 H10         0.9703    2.6871    1.0240 H         1 <0>         0.0000
     28 H11        -2.0871    1.0758    0.1444 H         1 <0>         0.0000
     29 H12        -1.6826   -0.4553    0.9437 H         1 <0>         0.0000
     30 H13         1.3215   -3.8953   -1.3853 H         1 <0>         0.0000
     31 H14         2.4323   -2.8965   -0.4219 H         1 <0>         0.0000
     32 H15         2.6461   -3.0174   -2.1817 H         1 <0>         0.0000
     33 H16         0.8208    5.7691    4.5318 H         1 <0>         0.0000
     34 H17         1.8864    4.3897    4.1732 H         1 <0>         0.0000
     35 H18         0.7220    4.2891    5.5162 H         1 <0>         0.0000
     36 H19         1.0348    2.0562    3.2662 H         1 <0>         0.0000
     37 H20        -0.1201    1.9553    4.6043 H         1 <0>         0.0000
@<TRIPOS>BOND
     1    1    9 1
     2    1   13 am
     3    1   15 2
     4    2   12 1
     5    2   14 am
     6    2   16 2
     7    3    4 1
     8    3    6 1
     9    3   18 1
    10    3   19 1
    11    4    9 1
    12    4   20 1
    13    4   21 1
    14    5    7 1
    15    5    9 1
    16    5   22 1
    17    5   23 1
    18    6   13 1
    19    6   24 1
    20    6   25 1
    21    7   14 1
    22    7   26 1
    23    7   27 1
    24    8    9 1
    25    8   14 1
    26    8   28 1
    27    8   29 1
    28   10   13 1
    29   10   30 1
    30   10   31 1
    31   10   32 1
    32   11   17 1
    33   11   33 1
    34   11   34 1
    35   11   35 1
    36   12   17 1
    37   12   36 1
    38   12   37 1
