@<TRIPOS>MOLECULE
*****
   69    73     0     0     0
SMALL
NO_CHARGES

@<TRIPOS>ATOM
      1 C1          2.7797   -7.2548   -4.2705 C.ar      1 <0>         0.0000
      2 C2          4.6074   -6.7528   -5.7467 C.ar      1 <0>         0.0000
      3 C3         -2.5699  -17.4044   -6.1574 C.ar      1 <0>         0.0000
      4 C4         -2.5030  -16.3825   -5.2258 C.ar      1 <0>         0.0000
      5 C5          3.3455   -6.4448   -3.2852 C.ar      1 <0>         0.0000
      6 C6          5.1970   -5.9522   -4.7679 C.ar      1 <0>         0.0000
      7 C7         -0.3992  -16.8124   -7.0320 C.ar      1 <0>         0.0000
      8 C8         -0.3176  -15.7710   -6.0911 C.ar      1 <0>         0.0000
      9 C9          3.4004   -7.4218   -5.5162 C.ar      1 <0>         0.0000
     10 C10        -1.5172  -17.6375   -7.0783 C.ar      1 <0>         0.0000
     11 C11        -1.3652  -15.5474   -5.1840 C.ar      1 <0>         0.0000
     12 C12         4.5614   -5.7964   -3.5266 C.ar      1 <0>         0.0000
     13 C13         0.8491  -14.8890   -6.0335 C.2       1 <0>         0.0000
     14 C14         2.8054   -8.2310   -6.6380 C.2       1 <0>         0.0000
     15 C15         3.8084  -10.6488   -5.3843 C.2       1 <0>         0.0000
     16 C16         8.5442   -3.2590    0.9508 C.3       1 <0>         0.0000
     17 C17         8.4548   -2.2675   -0.2185 C.3       1 <0>         0.0000
     18 C18         7.2308   -4.0358    1.1213 C.3       1 <0>         0.0000
     19 C19         1.3513  -10.1496   -7.5278 C.3       1 <0>         0.0000
     20 C20         8.0354   -2.9672   -1.5197 C.3       1 <0>         0.0000
     21 C21         6.8176   -4.7339   -0.1813 C.3       1 <0>         0.0000
     22 C22         1.4024  -11.6321   -7.0954 C.3       1 <0>         0.0000
     23 C23         1.7976   -9.3259   -6.2889 C.3       1 <0>         0.0000
     24 C24         2.2789  -10.3587   -5.2445 C.3       1 <0>         0.0000
     25 C25         6.7186   -3.7429   -1.3519 C.3       1 <0>         0.0000
     26 C26         1.3931  -11.5838   -5.5582 C.3       1 <0>         0.0000
     27 C27        -1.6271  -18.7622   -8.0808 C.3       1 <0>         0.0000
     28 C28         1.7969  -12.8838   -4.8606 C.3       1 <0>         0.0000
     29 C29         6.3408   -4.4399   -2.6543 C.3       1 <0>         0.0000
     30 N1         -1.3280  -14.5290   -4.2369 N.2       1 <0>         0.0000
     31 N2         -0.3127  -13.7549   -4.1880 N.2       1 <0>         0.0000
     32 N3          0.7376  -13.9100   -5.0330 N.am      1 <0>         0.0000
     33 O1          4.4160   -9.9294   -6.2325 O.co2     1 <0>         0.0000
     34 O2          1.8311  -14.9756   -6.7657 O.2       1 <0>         0.0000
     35 O3          2.9630   -7.8416   -7.7965 O.2       1 <0>         0.0000
     36 O4          4.2730  -11.5462   -4.6372 O.co2     1 <0>         0.0000
     37 O5          5.0544   -5.0278   -2.4924 O.3       1 <0>         0.0000
     38 H1          1.8401   -7.7548   -4.0567 H         1 <0>         0.0000
     39 H2          5.0900   -6.8917   -6.7085 H         1 <0>         0.0000
     40 H3         -3.4492  -18.0454   -6.1876 H         1 <0>         0.0000
     41 H4         -3.3069  -16.1990   -4.5187 H         1 <0>         0.0000
     42 H5          2.8644   -6.3123   -2.3196 H         1 <0>         0.0000
     43 H6          6.1451   -5.4683   -4.9765 H         1 <0>         0.0000
     44 H7          0.4338  -16.9470   -7.7163 H         1 <0>         0.0000
     45 H8          8.8005   -2.7302    1.8775 H         1 <0>         0.0000
     46 H9          9.3600   -3.9698    0.7578 H         1 <0>         0.0000
     47 H10         7.7174   -1.4897    0.0248 H         1 <0>         0.0000
     48 H11         9.4152   -1.7563   -0.3590 H         1 <0>         0.0000
     49 H12         7.3271   -4.7720    1.9285 H         1 <0>         0.0000
     50 H13         6.4369   -3.3392    1.4260 H         1 <0>         0.0000
     51 H14         2.0168   -9.9428   -8.3671 H         1 <0>         0.0000
     52 H15         0.3409   -9.8603   -7.8378 H         1 <0>         0.0000
     53 H16         7.9390   -2.2314   -2.3283 H         1 <0>         0.0000
     54 H17         8.8278   -3.6660   -1.8245 H         1 <0>         0.0000
     55 H18         7.5617   -5.5037   -0.4330 H         1 <0>         0.0000
     56 H19         5.8621   -5.2516   -0.0580 H         1 <0>         0.0000
     57 H20         0.5776  -12.2244   -7.5082 H         1 <0>         0.0000
     58 H21         2.3348  -12.0970   -7.4291 H         1 <0>         0.0000
     59 H22         0.9203   -8.7995   -5.8813 H         1 <0>         0.0000
     60 H23         2.1107  -10.0284   -4.2139 H         1 <0>         0.0000
     61 H24         5.9210   -3.0210   -1.1237 H         1 <0>         0.0000
     62 H25         0.3717  -11.3473   -5.2214 H         1 <0>         0.0000
     63 H26        -2.5039  -18.6320   -8.7260 H         1 <0>         0.0000
     64 H27        -0.7426  -18.8118   -8.7211 H         1 <0>         0.0000
     65 H28        -1.7350  -19.7306   -7.5783 H         1 <0>         0.0000
     66 H29         1.9201  -12.7319   -3.7889 H         1 <0>         0.0000
     67 H30         2.7236  -13.2860   -5.2589 H         1 <0>         0.0000
     68 H31         7.0817   -5.2153   -2.8980 H         1 <0>         0.0000
     69 H32         6.3234   -3.7161   -3.4825 H         1 <0>         0.0000
@<TRIPOS>BOND
     1    1    5 ar
     2    1    9 ar
     3    1   38 1
     4    2    6 ar
     5    2    9 ar
     6    2   39 1
     7    3    4 ar
     8    3   10 ar
     9    3   40 1
    10    4   11 ar
    11    4   41 1
    12    5   12 ar
    13    5   42 1
    14    6   12 ar
    15    6   43 1
    16    7    8 ar
    17    7   10 ar
    18    7   44 1
    19    8   11 ar
    20    8   13 1
    21    9   14 1
    22   10   27 1
    23   11   30 1
    24   12   37 1
    25   13   32 am
    26   13   34 2
    27   14   23 1
    28   14   35 2
    29   15   24 1
    30   15   33 1
    31   15   36 2
    32   16   18 1
    33   16   17 1
    34   16   45 1
    35   16   46 1
    36   17   20 1
    37   17   47 1
    38   17   48 1
    39   18   21 1
    40   18   49 1
    41   18   50 1
    42   19   22 1
    43   19   23 1
    44   19   51 1
    45   19   52 1
    46   20   25 1
    47   20   53 1
    48   20   54 1
    49   21   25 1
    50   21   55 1
    51   21   56 1
    52   22   26 1
    53   22   57 1
    54   22   58 1
    55   23   24 1
    56   23   59 1
    57   24   26 1
    58   24   60 1
    59   25   29 1
    60   25   61 1
    61   26   28 1
    62   26   62 1
    63   27   63 1
    64   27   64 1
    65   27   65 1
    66   28   32 1
    67   28   66 1
    68   28   67 1
    69   29   37 1
    70   29   68 1
    71   29   69 1
    72   30   31 2
    73   31   32 1
