@<TRIPOS>MOLECULE
*****
   56    58     0     0     0
SMALL
NO_CHARGES

@<TRIPOS>ATOM
      1 C1          3.7151   -6.6941   -0.4332 C.ar      1 <0>         0.0000
      2 C2          3.4335   -7.9619   -0.9032 C.ar      1 <0>         0.0000
      3 C3         -1.9427   -9.8054    1.9662 C.ar      1 <0>         0.0000
      4 C4         -0.9971  -11.4258    0.4013 C.ar      1 <0>         0.0000
      5 C5         -0.6536   -9.5065    2.4189 C.ar      1 <0>         0.0000
      6 C6          0.2893  -11.1229    0.8592 C.ar      1 <0>         0.0000
      7 C7          4.2756   -2.0146   -1.0123 C.ar      1 <0>         0.0000
      8 C8          1.9369   -2.2844   -0.4845 C.ar      1 <0>         0.0000
      9 C9          3.0262   -7.3094    1.7768 C.ar      1 <0>         0.0000
     10 C10         3.5247   -6.3324    0.9249 C.ar      1 <0>         0.0000
     11 C11         4.5829   -3.1016   -0.1820 C.ar      1 <0>         0.0000
     12 C12         2.2270   -3.3778    0.3383 C.ar      1 <0>         0.0000
     13 C13         3.5656   -3.7878    0.5158 C.ar      1 <0>         0.0000
     14 C14         2.9248   -9.0259   -0.0602 C.ar      1 <0>         0.0000
     15 C15         2.9510   -1.5877   -1.1553 C.ar      1 <0>         0.0000
     16 C16        -2.0814  -10.7622    0.9653 C.ar      1 <0>         0.0000
     17 C17         0.4465  -10.1656    1.8666 C.ar      1 <0>         0.0000
     18 C18         2.7452   -8.6101    1.3178 C.ar      1 <0>         0.0000
     19 C19         4.5651    1.0230   -2.4114 C.2       1 <0>         0.0000
     20 C20         6.0362   -3.5242   -0.0716 C.3       1 <0>         0.0000
     21 C21         1.0969   -4.1017    1.0380 C.3       1 <0>         0.0000
     22 C22         3.1352    1.1487   -0.2859 C.3       1 <0>         0.0000
     23 C23         2.1412    1.6795   -2.5370 C.3       1 <0>         0.0000
     24 C24         3.8862   -4.9468    1.4455 C.3       1 <0>         0.0000
     25 C25         3.1326    0.7928   -1.7764 C.3       1 <0>         0.0000
     26 O1          2.6455  -10.1819   -0.5071 O.3       1 <0>         0.0000
     27 O2          5.0765    0.0880   -3.0777 O.co2     1 <0>         0.0000
     28 O3          5.0143    2.1839   -2.1863 O.co2     1 <0>         0.0000
     29 O4          1.8722   -9.0506    3.7720 O.2       1 <0>         0.0000
     30 O5          2.8561  -11.0311    2.5282 O.2       1 <0>         0.0000
     31 O6          2.5688   -0.5492   -1.9644 O.3       1 <0>         0.0000
     32 F1         -3.3431  -11.0641    0.5195 F         1 <0>         0.0000
     33 S1          2.1002   -9.7630    2.4864 S.o2      1 <0>         0.0000
     34 H1          4.0704   -5.9349   -1.1291 H         1 <0>         0.0000
     35 H2          3.5739   -8.2095   -1.9538 H         1 <0>         0.0000
     36 H3         -2.8211   -9.3125    2.3727 H         1 <0>         0.0000
     37 H4         -1.1600  -12.1551   -0.3871 H         1 <0>         0.0000
     38 H5         -0.4900   -8.7728    3.2019 H         1 <0>         0.0000
     39 H6          1.1733  -11.5775    0.4278 H         1 <0>         0.0000
     40 H7          5.0379   -1.4920   -1.5819 H         1 <0>         0.0000
     41 H8          0.9101   -1.9495   -0.6164 H         1 <0>         0.0000
     42 H9          2.8401   -7.0822    2.8239 H         1 <0>         0.0000
     43 H10         6.4398   -3.3438    0.9334 H         1 <0>         0.0000
     44 H11         6.1699   -4.5912   -0.2836 H         1 <0>         0.0000
     45 H12         6.6481   -2.9584   -0.7793 H         1 <0>         0.0000
     46 H13         1.0735   -5.1624    0.7674 H         1 <0>         0.0000
     47 H14         1.2025   -4.0616    2.1301 H         1 <0>         0.0000
     48 H15         0.1311   -3.6560    0.7795 H         1 <0>         0.0000
     49 H16         2.1292    1.0395    0.1412 H         1 <0>         0.0000
     50 H17         3.4783    2.1791   -0.1763 H         1 <0>         0.0000
     51 H18         3.8168    0.5021    0.2747 H         1 <0>         0.0000
     52 H19         1.1363    1.5984   -2.1017 H         1 <0>         0.0000
     53 H20         2.0925    1.3600   -3.5835 H         1 <0>         0.0000
     54 H21         2.4819    2.7166   -2.5004 H         1 <0>         0.0000
     55 H22         3.3651   -4.8000    2.4001 H         1 <0>         0.0000
     56 H23         4.9530   -4.9209    1.6933 H         1 <0>         0.0000
@<TRIPOS>BOND
     1    1    2 ar
     2    1   10 ar
     3    1   34 1
     4    2   14 ar
     5    2   35 1
     6    3    5 ar
     7    3   16 ar
     8    3   36 1
     9    4    6 ar
    10    4   16 ar
    11    4   37 1
    12    5   17 ar
    13    5   38 1
    14    6   17 ar
    15    6   39 1
    16    7   11 ar
    17    7   15 ar
    18    7   40 1
    19    8   12 ar
    20    8   15 ar
    21    8   41 1
    22    9   10 ar
    23    9   18 ar
    24    9   42 1
    25   10   24 1
    26   11   13 ar
    27   11   20 1
    28   12   13 ar
    29   12   21 1
    30   13   24 1
    31   14   18 ar
    32   14   26 1
    33   15   31 1
    34   16   32 1
    35   17   33 1
    36   18   33 1
    37   19   25 1
    38   19   27 1
    39   19   28 2
    40   20   43 1
    41   20   44 1
    42   20   45 1
    43   21   46 1
    44   21   47 1
    45   21   48 1
    46   22   25 1
    47   22   49 1
    48   22   50 1
    49   22   51 1
    50   23   25 1
    51   23   52 1
    52   23   53 1
    53   23   54 1
    54   24   55 1
    55   24   56 1
    56   25   31 1
    57   29   33 2
    58   30   33 2
