@<TRIPOS>MOLECULE
*****
   62    65     0     0     0
SMALL
NO_CHARGES

@<TRIPOS>ATOM
      1 C1         -0.8894   -8.7777    0.2050 C.ar      1 <0>         0.0000
      2 C2          3.9989   -3.6271    6.6305 C.ar      1 <0>         0.0000
      3 C3         -0.2279   -7.6088   -0.1813 C.ar      1 <0>         0.0000
      4 C4         -1.2683   -8.9457    1.5425 C.ar      1 <0>         0.0000
      5 C5          2.6817   -3.2735    6.3251 C.ar      1 <0>         0.0000
      6 C6          4.7419   -4.3782    5.7115 C.ar      1 <0>         0.0000
      7 C7          0.6062   -1.1458    1.4198 C.ar      1 <0>         0.0000
      8 C8         -1.5042   -2.2181    1.0915 C.ar      1 <0>         0.0000
      9 C9          0.0525   -6.6121    0.7604 C.ar      1 <0>         0.0000
     10 C10        -0.9848   -7.9499    2.4800 C.ar      1 <0>         0.0000
     11 C11         2.1094   -3.6650    5.1094 C.ar      1 <0>         0.0000
     12 C12         4.1668   -4.7690    4.5002 C.ar      1 <0>         0.0000
     13 C13         1.1162   -2.3006    2.0077 C.ar      1 <0>         0.0000
     14 C14        -1.0084   -3.3920    1.6611 C.ar      1 <0>         0.0000
     15 C15        -0.7130   -1.0723    0.9511 C.ar      1 <0>         0.0000
     16 C16        -0.3238   -6.7733    2.0982 C.ar      1 <0>         0.0000
     17 C17         2.8465   -4.4148    4.1865 C.ar      1 <0>         0.0000
     18 C18         0.3188   -3.4601    2.1345 C.ar      1 <0>         0.0000
     19 C19         0.5401   -0.9905   -3.8012 C.2       1 <0>         0.0000
     20 C20        -2.4100    1.9694    0.6729 C.3       1 <0>         0.0000
     21 C21        -0.9573    1.5347    1.0037 C.3       1 <0>         0.0000
     22 C22        -2.7463    0.4897    0.3464 C.3       1 <0>         0.0000
     23 C23        -1.2148    0.1788    0.2656 C.3       1 <0>         0.0000
     24 C24         0.7223   -0.7221   -5.2770 C.3       1 <0>         0.0000
     25 C25        -0.0401   -5.7003    3.1435 C.3       1 <0>         0.0000
     26 C26         2.2531   -4.8420    2.8494 C.3       1 <0>         0.0000
     27 C27        -0.6876    0.2561   -1.1831 C.3       1 <0>         0.0000
     28 C28        -1.0528   -0.9645   -2.0205 C.3       1 <0>         0.0000
     29 N1          0.8266   -4.6238    2.7085 N.pl3     1 <0>         0.0000
     30 O1          1.4126   -1.3755   -3.0458 O.2       1 <0>         0.0000
     31 O2         -0.7380   -0.7483   -3.4234 O.3       1 <0>         0.0000
     32 H1         -1.1067   -9.5520   -0.5263 H         1 <0>         0.0000
     33 H2          4.4435   -3.3229    7.5746 H         1 <0>         0.0000
     34 H3          0.0701   -7.4687   -1.2175 H         1 <0>         0.0000
     35 H4         -1.7799   -9.8531    1.8540 H         1 <0>         0.0000
     36 H5          2.0974   -2.6895    7.0320 H         1 <0>         0.0000
     37 H6          5.7663   -4.6612    5.9409 H         1 <0>         0.0000
     38 H7          1.2538   -0.2755    1.3361 H         1 <0>         0.0000
     39 H8         -2.5297   -2.2134    0.7296 H         1 <0>         0.0000
     40 H9          0.5621   -5.7032    0.4550 H         1 <0>         0.0000
     41 H10        -1.2773   -8.0893    3.5197 H         1 <0>         0.0000
     42 H11         1.0874   -3.3853    4.8719 H         1 <0>         0.0000
     43 H12         4.7488   -5.3565    3.7917 H         1 <0>         0.0000
     44 H13         2.1300   -2.2897    2.3932 H         1 <0>         0.0000
     45 H14        -1.6503   -4.2654    1.7027 H         1 <0>         0.0000
     46 H15        -2.4639    2.6160   -0.2073 H         1 <0>         0.0000
     47 H16        -2.9810    2.4364    1.4797 H         1 <0>         0.0000
     48 H17        -0.1439    2.1570    0.6165 H         1 <0>         0.0000
     49 H18        -0.8066    1.3819    2.0760 H         1 <0>         0.0000
     50 H19        -3.2171   -0.0135    1.1952 H         1 <0>         0.0000
     51 H20        -3.3446    0.2973   -0.5501 H         1 <0>         0.0000
     52 H21         0.0490   -1.3586   -5.8586 H         1 <0>         0.0000
     53 H22         1.7564   -0.9195   -5.5583 H         1 <0>         0.0000
     54 H23         0.4656    0.3172   -5.5020 H         1 <0>         0.0000
     55 H24        -0.9852   -5.2771    3.5009 H         1 <0>         0.0000
     56 H25         0.4204   -6.1717    4.0200 H         1 <0>         0.0000
     57 H26         2.7770   -4.3296    2.0352 H         1 <0>         0.0000
     58 H27         2.4502   -5.9100    2.6978 H         1 <0>         0.0000
     59 H28         0.4027    0.3537   -1.1630 H         1 <0>         0.0000
     60 H29        -1.0891    1.1513   -1.6740 H         1 <0>         0.0000
     61 H30        -0.5322   -1.8559   -1.6701 H         1 <0>         0.0000
     62 H31        -2.1293   -1.1483   -2.0130 H         1 <0>         0.0000
@<TRIPOS>BOND
     1    1    4 ar
     2    1    3 ar
     3    1   32 1
     4    2    6 ar
     5    2    5 ar
     6    2   33 1
     7    3    9 ar
     8    3   34 1
     9    4   10 ar
    10    4   35 1
    11    5   11 ar
    12    5   36 1
    13    6   12 ar
    14    6   37 1
    15    7   13 ar
    16    7   15 ar
    17    7   38 1
    18    8   14 ar
    19    8   15 ar
    20    8   39 1
    21    9   16 ar
    22    9   40 1
    23   10   16 ar
    24   10   41 1
    25   11   17 ar
    26   11   42 1
    27   12   17 ar
    28   12   43 1
    29   13   18 ar
    30   13   44 1
    31   14   18 ar
    32   14   45 1
    33   15   23 1
    34   16   25 1
    35   17   26 1
    36   18   29 1
    37   19   24 1
    38   19   30 2
    39   19   31 1
    40   20   22 1
    41   20   21 1
    42   20   46 1
    43   20   47 1
    44   21   23 1
    45   21   48 1
    46   21   49 1
    47   22   23 1
    48   22   50 1
    49   22   51 1
    50   23   27 1
    51   24   52 1
    52   24   53 1
    53   24   54 1
    54   25   29 1
    55   25   55 1
    56   25   56 1
    57   26   29 1
    58   26   57 1
    59   26   58 1
    60   27   28 1
    61   27   59 1
    62   27   60 1
    63   28   31 1
    64   28   61 1
    65   28   62 1
