@<TRIPOS>MOLECULE
*****
   50    50     0     0     0
SMALL
NO_CHARGES

@<TRIPOS>ATOM
      1 C1         -5.5622   -1.2167    1.9569 C.2       1 <0>         0.0000
      2 C2         -5.9425   -2.6554   -0.5315 C.2       1 <0>         0.0000
      3 C3         -6.0119   -0.3560    3.1223 C.3       1 <0>         0.0000
      4 C4         -6.9664    0.6714    2.4893 C.3       1 <0>         0.0000
      5 C5         -6.5786    0.6898    0.9910 C.3       1 <0>         0.0000
      6 C6         -7.3389   -4.7912    2.5178 C.3       1 <0>         0.0000
      7 C7         -8.3228   -6.9408    1.6705 C.3       1 <0>         0.0000
      8 C8         -4.2942   -8.2807    0.8159 C.3       1 <0>         0.0000
      9 C9         -6.1965   -7.8645   -0.8134 C.3       1 <0>         0.0000
     10 C10        -5.5999   -1.1640   -0.5034 C.3       1 <0>         0.0000
     11 C11        -5.1081   -4.9189   -0.7830 C.3       1 <0>         0.0000
     12 C12        -4.9065   -5.3202    0.6990 C.3       1 <0>         0.0000
     13 C13        -7.3176   -5.8243    1.3899 C.3       1 <0>         0.0000
     14 C14        -5.7240   -7.7714    0.6358 C.3       1 <0>         0.0000
     15 C15        -5.6273    1.8423    0.6491 C.3       1 <0>         0.0000
     16 N1         -5.9334   -0.6002    0.7934 N.am      1 <0>         0.0000
     17 N2         -4.9404   -3.4860   -0.9562 N.am      1 <0>         0.0000
     18 N3         -5.8679   -6.3656    1.2471 N.4       1 <0>         0.0000
     19 O1         -4.9677   -2.2967    2.0017 O.2       1 <0>         0.0000
     20 O2         -7.0584   -3.0738   -0.2312 O.2       1 <0>         0.0000
     21 F1         -6.2356    3.0308    0.8259 F         1 <0>         0.0000
     22 F2         -4.5150    1.8195    1.4207 F         1 <0>         0.0000
     23 F3         -5.2207    1.7733   -0.6438 F         1 <0>         0.0000
     24 H1         -6.4774   -0.9756    3.8910 H         1 <0>         0.0000
     25 H2         -5.1256    0.1098    3.5635 H         1 <0>         0.0000
     26 H3         -8.0015    0.3339    2.5723 H         1 <0>         0.0000
     27 H4         -6.9009    1.6619    2.9403 H         1 <0>         0.0000
     28 H5         -7.4473    0.7982    0.3353 H         1 <0>         0.0000
     29 H6         -7.1149   -5.2600    3.4844 H         1 <0>         0.0000
     30 H7         -6.6613   -3.9547    2.3544 H         1 <0>         0.0000
     31 H8         -8.3483   -4.3779    2.5783 H         1 <0>         0.0000
     32 H9         -8.0899   -7.4799    2.5953 H         1 <0>         0.0000
     33 H10        -8.4278   -7.6590    0.8565 H         1 <0>         0.0000
     34 H11        -9.3000   -6.4722    1.8107 H         1 <0>         0.0000
     35 H12        -3.5860   -7.7866    0.1462 H         1 <0>         0.0000
     36 H13        -3.9407   -8.1732    1.8474 H         1 <0>         0.0000
     37 H14        -4.2766   -9.3473    0.5772 H         1 <0>         0.0000
     38 H15        -5.4679   -7.4508   -1.5120 H         1 <0>         0.0000
     39 H16        -7.1598   -7.3801   -0.9827 H         1 <0>         0.0000
     40 H17        -6.3150   -8.9232   -1.0595 H         1 <0>         0.0000
     41 H18        -4.5464   -0.9867   -0.7464 H         1 <0>         0.0000
     42 H19        -6.2040   -0.6690   -1.2666 H         1 <0>         0.0000
     43 H20        -4.3924   -5.4300   -1.4288 H         1 <0>         0.0000
     44 H21        -6.1078   -5.1684   -1.1330 H         1 <0>         0.0000
     45 H22        -5.0192   -4.4361    1.3229 H         1 <0>         0.0000
     46 H23        -3.9019   -5.7083    0.8670 H         1 <0>         0.0000
     47 H24        -7.5402   -5.3264    0.4472 H         1 <0>         0.0000
     48 H25        -6.3773   -8.3813    1.2597 H         1 <0>         0.0000
     49 H26        -3.9977   -3.1167   -0.9714 H         1 <0>         0.0000
     50 H27        -5.5579   -6.4946    2.2161 H         1 <0>         0.0000
@<TRIPOS>BOND
     1    1    3 1
     2    1   16 am
     3    1   19 2
     4    2   10 1
     5    2   17 am
     6    2   20 2
     7    3    4 1
     8    3   24 1
     9    3   25 1
    10    4    5 1
    11    4   26 1
    12    4   27 1
    13    5   15 1
    14    5   16 1
    15    5   28 1
    16    6   13 1
    17    6   29 1
    18    6   30 1
    19    6   31 1
    20    7   13 1
    21    7   32 1
    22    7   33 1
    23    7   34 1
    24    8   14 1
    25    8   35 1
    26    8   36 1
    27    8   37 1
    28    9   14 1
    29    9   38 1
    30    9   39 1
    31    9   40 1
    32   10   16 1
    33   10   41 1
    34   10   42 1
    35   11   12 1
    36   11   17 1
    37   11   43 1
    38   11   44 1
    39   12   18 1
    40   12   45 1
    41   12   46 1
    42   13   18 1
    43   13   47 1
    44   14   18 1
    45   14   48 1
    46   15   21 1
    47   15   22 1
    48   15   23 1
    49   17   49 1
    50   18   50 1
