@<TRIPOS>MOLECULE
*****
   56    58     0     0     0
SMALL
NO_CHARGES

@<TRIPOS>ATOM
      1 C1          3.2676   -6.8378    1.1365 C.ar      1 <0>         0.0000
      2 C2          3.0802   -8.0781    0.5558 C.ar      1 <0>         0.0000
      3 C3          1.6391   -9.2673   -4.9306 C.ar      1 <0>         0.0000
      4 C4          1.6082   -6.8989   -5.5328 C.ar      1 <0>         0.0000
      5 C5          2.7804   -9.0570   -4.1500 C.ar      1 <0>         0.0000
      6 C6          2.7500   -6.6953   -4.7511 C.ar      1 <0>         0.0000
      7 C7          4.3318   -1.0484   -0.6557 C.ar      1 <0>         0.0000
      8 C8          2.0147   -1.7049   -0.5157 C.ar      1 <0>         0.0000
      9 C9          4.3440   -6.0054   -0.8320 C.ar      1 <0>         0.0000
     10 C10         3.8988   -5.7639    0.4643 C.ar      1 <0>         0.0000
     11 C11         4.7049   -2.2428   -0.0225 C.ar      1 <0>         0.0000
     12 C12         2.3697   -2.9007    0.1176 C.ar      1 <0>         0.0000
     13 C13         3.7277   -3.1744    0.3903 C.ar      1 <0>         0.0000
     14 C14         3.5203   -8.3882   -0.7881 C.ar      1 <0>         0.0000
     15 C15         2.9831   -0.7650   -0.8898 C.ar      1 <0>         0.0000
     16 C16         1.0814   -8.1849   -5.6031 C.ar      1 <0>         0.0000
     17 C17         3.3249   -7.7717   -4.0720 C.ar      1 <0>         0.0000
     18 C18         4.1857   -7.2679   -1.4297 C.ar      1 <0>         0.0000
     19 C19         4.1288    2.3309   -0.9238 C.2       1 <0>         0.0000
     20 C20         6.1845   -2.4999    0.1959 C.3       1 <0>         0.0000
     21 C21         1.2835   -3.8773    0.5133 C.3       1 <0>         0.0000
     22 C22         2.2075    1.5613    0.5885 C.3       1 <0>         0.0000
     23 C23         1.7411    2.5648   -1.6744 C.3       1 <0>         0.0000
     24 C24         4.1063   -4.4279    1.1651 C.3       1 <0>         0.0000
     25 C25         2.6874    1.6754   -0.8619 C.3       1 <0>         0.0000
     26 O1          3.3133   -9.5165   -1.3338 O.3       1 <0>         0.0000
     27 O2          5.0101    1.7660   -1.6190 O.co2     1 <0>         0.0000
     28 O3          4.1983    3.4128   -0.2709 O.co2     1 <0>         0.0000
     29 O4          5.6611   -8.6704   -3.2106 O.2       1 <0>         0.0000
     30 O5          5.3442   -6.1740   -3.5389 O.2       1 <0>         0.0000
     31 O6          2.5621    0.3750   -1.5315 O.3       1 <0>         0.0000
     32 F1         -0.0368   -8.3941   -6.3706 F         1 <0>         0.0000
     33 S1          4.8052   -7.4750   -3.0725 S.o2      1 <0>         0.0000
     34 H1          2.8975   -6.6684    2.1499 H         1 <0>         0.0000
     35 H2          2.5717   -8.8771    1.0928 H         1 <0>         0.0000
     36 H3          1.1798  -10.2486   -5.0105 H         1 <0>         0.0000
     37 H4          1.1340   -6.0851   -6.0735 H         1 <0>         0.0000
     38 H5          3.2335   -9.8523   -3.5701 H         1 <0>         0.0000
     39 H6          3.2028   -5.7123   -4.6662 H         1 <0>         0.0000
     40 H7          5.0593   -0.3094   -0.9789 H         1 <0>         0.0000
     41 H8          0.9704   -1.4772   -0.7193 H         1 <0>         0.0000
     42 H9          4.8163   -5.2135   -1.4076 H         1 <0>         0.0000
     43 H10         6.4507   -2.4909    1.2611 H         1 <0>         0.0000
     44 H11         6.4944   -3.4706   -0.2075 H         1 <0>         0.0000
     45 H12         6.7771   -1.7250   -0.2973 H         1 <0>         0.0000
     46 H13         1.4000   -4.8368   -0.0006 H         1 <0>         0.0000
     47 H14         1.3056   -4.0982    1.5885 H         1 <0>         0.0000
     48 H15         0.2942   -3.4732    0.2752 H         1 <0>         0.0000
     49 H16         1.1858    1.1602    0.6319 H         1 <0>         0.0000
     50 H17         2.2403    2.5531    1.0432 H         1 <0>         0.0000
     51 H18         2.8589    0.8999    1.1679 H         1 <0>         0.0000
     52 H19         0.7116    2.1859   -1.6209 H         1 <0>         0.0000
     53 H20         2.0549    2.5691   -2.7236 H         1 <0>         0.0000
     54 H21         1.7833    3.5862   -1.2890 H         1 <0>         0.0000
     55 H22         3.5220   -4.4507    2.0955 H         1 <0>         0.0000
     56 H23         5.1496   -4.3468    1.4863 H         1 <0>         0.0000
@<TRIPOS>BOND
     1    1    2 ar
     2    1   10 ar
     3    1   34 1
     4    2   14 ar
     5    2   35 1
     6    3    5 ar
     7    3   16 ar
     8    3   36 1
     9    4    6 ar
    10    4   16 ar
    11    4   37 1
    12    5   17 ar
    13    5   38 1
    14    6   17 ar
    15    6   39 1
    16    7   11 ar
    17    7   15 ar
    18    7   40 1
    19    8   12 ar
    20    8   15 ar
    21    8   41 1
    22    9   10 ar
    23    9   18 ar
    24    9   42 1
    25   10   24 1
    26   11   13 ar
    27   11   20 1
    28   12   13 ar
    29   12   21 1
    30   13   24 1
    31   14   18 ar
    32   14   26 1
    33   15   31 1
    34   16   32 1
    35   17   33 1
    36   18   33 1
    37   19   25 1
    38   19   27 1
    39   19   28 2
    40   20   43 1
    41   20   44 1
    42   20   45 1
    43   21   46 1
    44   21   47 1
    45   21   48 1
    46   22   25 1
    47   22   49 1
    48   22   50 1
    49   22   51 1
    50   23   25 1
    51   23   52 1
    52   23   53 1
    53   23   54 1
    54   24   55 1
    55   24   56 1
    56   25   31 1
    57   29   33 2
    58   30   33 2
