@<TRIPOS>MOLECULE
*****
   46    50     0     0     0
SMALL
NO_CHARGES

@<TRIPOS>ATOM
      1 C1         -0.3694    3.6885    4.4717 C.ar      1 <0>         0.0000
      2 C2          1.1617   -2.5021    0.1532 C.ar      1 <0>         0.0000
      3 C3         -1.1535    3.0015    3.5424 C.ar      1 <0>         0.0000
      4 C4          0.0954   -1.7924    0.7031 C.ar      1 <0>         0.0000
      5 C5         -0.3222    3.2743    5.8063 C.ar      1 <0>         0.0000
      6 C6          1.7160   -0.5453    2.0028 C.ar      1 <0>         0.0000
      7 C7          4.4755   -3.8517    0.6016 C.ar      1 <0>         0.0000
      8 C8         -1.8495    1.4565    5.2664 C.ar      1 <0>         0.0000
      9 C9          3.5186   -3.3369   -1.5336 C.ar      1 <0>         0.0000
     10 C10         5.2449   -4.8423   -1.4701 C.ar      1 <0>         0.0000
     11 C11         2.5046   -2.2686    0.4966 C.ar      1 <0>         0.0000
     12 C12         2.7974   -1.2470    1.4399 C.ar      1 <0>         0.0000
     13 C13         3.5243   -3.1397   -0.1425 C.ar      1 <0>         0.0000
     14 C14        -1.8989    1.8767    3.9294 C.ar      1 <0>         0.0000
     15 C15         0.3899   -0.8016    1.6511 C.ar      1 <0>         0.0000
     16 C16         5.3219   -4.7023   -0.0863 C.ar      1 <0>         0.0000
     17 C17        -1.0730    2.1609    6.1861 C.ar      1 <0>         0.0000
     18 C18         4.1411   -0.8239    1.8525 C.2       1 <0>         0.0000
     19 C19        -1.9373    0.0563    2.0765 C.2       1 <0>         0.0000
     20 C20        -4.1254    0.7373    3.2112 C.3       1 <0>         0.0000
     21 C21        -3.8163    1.7815    2.1762 C.3       1 <0>         0.0000
     22 C22        -2.6765    1.0910    2.9165 C.3       1 <0>         0.0000
     23 N1          6.2482   -0.5207    1.9775 N.2       1 <0>         0.0000
     24 N2          4.3481   -4.1601   -2.1922 N.ar      1 <0>         0.0000
     25 N3          5.3114   -1.1938    1.2913 N.2       1 <0>         0.0000
     26 N4          4.3351    0.0586    2.8607 N.2       1 <0>         0.0000
     27 N5          5.6625    0.2267    2.9167 N.2       1 <0>         0.0000
     28 N6         -0.5948   -0.0115    2.2996 N.am      1 <0>         0.0000
     29 O1         -2.5521   -0.6382    1.2619 O.2       1 <0>         0.0000
     30 F1          6.2495   -5.4322    0.5964 F         1 <0>         0.0000
     31 Cl1        -1.0319    1.6258    7.8621 Cl        1 <0>         0.0000
     32 H1          0.2201    4.5459    4.1589 H         1 <0>         0.0000
     33 H2          0.9426   -3.2955   -0.5570 H         1 <0>         0.0000
     34 H3         -1.1795    3.3240    2.5048 H         1 <0>         0.0000
     35 H4         -0.9273   -1.9987    0.4201 H         1 <0>         0.0000
     36 H5          0.2901    3.7968    6.5341 H         1 <0>         0.0000
     37 H6          1.9581    0.2330    2.7223 H         1 <0>         0.0000
     38 H7          4.5587   -3.7394    1.6760 H         1 <0>         0.0000
     39 H8         -2.4077    0.5801    5.5806 H         1 <0>         0.0000
     40 H9          2.8120   -2.7814   -2.1477 H         1 <0>         0.0000
     41 H10         5.9237   -5.5136   -1.9939 H         1 <0>         0.0000
     42 H11        -4.5259    1.0663    4.1653 H         1 <0>         0.0000
     43 H12        -4.4598   -0.2314    2.8561 H         1 <0>         0.0000
     44 H13        -3.9450    1.5063    1.1348 H         1 <0>         0.0000
     45 H14        -3.9975    2.8225    2.4267 H         1 <0>         0.0000
     46 H15        -0.2204    0.6271    2.9902 H         1 <0>         0.0000
@<TRIPOS>BOND
     1    1    3 ar
     2    1    5 ar
     3    1   32 1
     4    2    4 ar
     5    2   11 ar
     6    2   33 1
     7    3   14 ar
     8    3   34 1
     9    4   15 ar
    10    4   35 1
    11    5   17 ar
    12    5   36 1
    13    6   12 ar
    14    6   15 ar
    15    6   37 1
    16    7   13 ar
    17    7   16 ar
    18    7   38 1
    19    8   14 ar
    20    8   17 ar
    21    8   39 1
    22    9   13 ar
    23    9   24 ar
    24    9   40 1
    25   10   16 ar
    26   10   24 ar
    27   10   41 1
    28   11   12 ar
    29   11   13 1
    30   12   18 1
    31   14   22 1
    32   15   28 1
    33   16   30 1
    34   17   31 1
    35   18   25 2
    36   18   26 1
    37   19   22 1
    38   19   28 am
    39   19   29 2
    40   20   21 1
    41   20   22 1
    42   20   42 1
    43   20   43 1
    44   21   22 1
    45   21   44 1
    46   21   45 1
    47   23   25 1
    48   23   27 1
    49   26   27 2
    50   28   46 1
