@<TRIPOS>MOLECULE
*****
   46    50     0     0     0
SMALL
NO_CHARGES

@<TRIPOS>ATOM
      1 C1         -3.8761   -1.7057    3.8443 C.ar      1 <0>         0.0000
      2 C2          2.7142   -0.0323    0.2643 C.ar      1 <0>         0.0000
      3 C3         -3.5281   -0.6621    2.9841 C.ar      1 <0>         0.0000
      4 C4          1.5523    0.5732    0.7408 C.ar      1 <0>         0.0000
      5 C5         -3.6745   -1.5878    5.2229 C.ar      1 <0>         0.0000
      6 C6          1.0498   -1.5016    1.8868 C.ar      1 <0>         0.0000
      7 C7          4.3292   -3.0762   -0.8001 C.ar      1 <0>         0.0000
      8 C8         -2.7476    0.6358    4.8680 C.ar      1 <0>         0.0000
      9 C9          5.5068   -1.1463   -0.0072 C.ar      1 <0>         0.0000
     10 C10         6.6542   -2.6369   -1.3158 C.ar      1 <0>         0.0000
     11 C11         3.0735   -1.3571    0.5658 C.ar      1 <0>         0.0000
     12 C12         2.2232   -2.1158    1.4142 C.ar      1 <0>         0.0000
     13 C13         4.3114   -1.8820   -0.0655 C.ar      1 <0>         0.0000
     14 C14        -2.9567    0.5178    3.4866 C.ar      1 <0>         0.0000
     15 C15         0.7068   -0.1884    1.5604 C.ar      1 <0>         0.0000
     16 C16         5.5134   -3.4294   -1.4211 C.ar      1 <0>         0.0000
     17 C17        -3.1158   -0.4082    5.7165 C.ar      1 <0>         0.0000
     18 C18         2.4764   -3.4889    1.8658 C.2       1 <0>         0.0000
     19 C19        -1.1683    1.4630    1.8544 C.2       1 <0>         0.0000
     20 C20        -3.5685    2.3191    1.7161 C.3       1 <0>         0.0000
     21 C21        -2.9115    3.0422    2.8572 C.3       1 <0>         0.0000
     22 C22        -2.5136    1.6065    2.5557 C.3       1 <0>         0.0000
     23 N1          3.3960   -5.3481    2.3578 N.2       1 <0>         0.0000
     24 N2          6.6520   -1.5003   -0.6094 N.ar      1 <0>         0.0000
     25 N3          3.6455   -4.1584    1.7884 N.2       1 <0>         0.0000
     26 N4          1.5194   -4.2333    2.4680 N.2       1 <0>         0.0000
     27 N5          2.1234   -5.3925    2.7608 N.2       1 <0>         0.0000
     28 N6         -0.5104    0.2966    2.1064 N.am      1 <0>         0.0000
     29 O1         -0.7535    2.3599    1.1146 O.2       1 <0>         0.0000
     30 F1          5.5739   -4.5711   -2.1640 F         1 <0>         0.0000
     31 Cl1        -2.8613   -0.2350    7.4494 Cl        1 <0>         0.0000
     32 H1         -4.2980   -2.6234    3.4440 H         1 <0>         0.0000
     33 H2          3.3589    0.5383   -0.3997 H         1 <0>         0.0000
     34 H3         -3.6825   -0.7627    1.9130 H         1 <0>         0.0000
     35 H4          1.2955    1.5896    0.4767 H         1 <0>         0.0000
     36 H5         -3.9364   -2.3954    5.8988 H         1 <0>         0.0000
     37 H6          0.4095   -2.0976    2.5325 H         1 <0>         0.0000
     38 H7          3.4543   -3.7111   -0.8766 H         1 <0>         0.0000
     39 H8         -2.2936    1.5345    5.2737 H         1 <0>         0.0000
     40 H9          5.5394   -0.2275    0.5756 H         1 <0>         0.0000
     41 H10         7.5785   -2.9343   -1.8088 H         1 <0>         0.0000
     42 H11        -4.5944    1.9857    1.8419 H         1 <0>         0.0000
     43 H12        -3.2708    2.5968    0.7106 H         1 <0>         0.0000
     44 H13        -2.1772    3.8007    2.6087 H         1 <0>         0.0000
     45 H14        -3.4940    3.2112    3.7579 H         1 <0>         0.0000
     46 H15        -0.9750   -0.3584    2.7229 H         1 <0>         0.0000
@<TRIPOS>BOND
     1    1    3 ar
     2    1    5 ar
     3    1   32 1
     4    2    4 ar
     5    2   11 ar
     6    2   33 1
     7    3   14 ar
     8    3   34 1
     9    4   15 ar
    10    4   35 1
    11    5   17 ar
    12    5   36 1
    13    6   12 ar
    14    6   15 ar
    15    6   37 1
    16    7   13 ar
    17    7   16 ar
    18    7   38 1
    19    8   14 ar
    20    8   17 ar
    21    8   39 1
    22    9   13 ar
    23    9   24 ar
    24    9   40 1
    25   10   16 ar
    26   10   24 ar
    27   10   41 1
    28   11   12 ar
    29   11   13 1
    30   12   18 1
    31   14   22 1
    32   15   28 1
    33   16   30 1
    34   17   31 1
    35   18   25 2
    36   18   26 1
    37   19   22 1
    38   19   28 am
    39   19   29 2
    40   20   21 1
    41   20   22 1
    42   20   42 1
    43   20   43 1
    44   21   22 1
    45   21   44 1
    46   21   45 1
    47   23   25 1
    48   23   27 1
    49   26   27 2
    50   28   46 1
