@<TRIPOS>MOLECULE
*****
   46    48     0     0     0
SMALL
NO_CHARGES

@<TRIPOS>ATOM
      1 C1         -1.4171    2.6480   -1.7784 C.ar      1 <0>         0.0000
      2 C2         -2.4110    3.6175   -1.8264 C.ar      1 <0>         0.0000
      3 C3         -3.5145    1.6557    4.8883 C.2       1 <0>         0.0000
      4 C4         -1.3078    1.7945   -0.6715 C.ar      1 <0>         0.0000
      5 C5         -3.2248    2.9165    0.3622 C.ar      1 <0>         0.0000
      6 C6         -3.2980    3.7662   -0.7537 C.ar      1 <0>         0.0000
      7 C7         -2.2110    1.9361    0.3875 C.ar      1 <0>         0.0000
      8 C8         -0.6124   -1.4106   -1.9048 C.2       1 <0>         0.0000
      9 C9          0.3044   -1.4234    0.5123 C.2       1 <0>         0.0000
     10 C10        -0.2130    0.7598   -0.7235 C.2       1 <0>         0.0000
     11 C11        -0.7078   -2.9223   -1.8572 C.3       1 <0>         0.0000
     12 C12         0.1807   -2.9351    0.5253 C.3       1 <0>         0.0000
     13 C13         0.3210   -3.5248   -0.8869 C.3       1 <0>         0.0000
     14 C14        -0.5813   -0.7078   -0.5301 C.3       1 <0>         0.0000
     15 C15        -3.4499    6.5608   -0.5087 C.3       1 <0>         0.0000
     16 C16        -4.8626    3.3768    3.5810 C.3       1 <0>         0.0000
     17 C17        -3.9244    3.8192    2.4673 C.3       1 <0>         0.0000
     18 N1         -3.5420    0.3412    4.9981 N.2       1 <0>         0.0000
     19 N2         -4.6035   -0.0663    4.2403 N.2       1 <0>         0.0000
     20 N3         -5.1986    0.9447    3.6895 N.2       1 <0>         0.0000
     21 N4         -4.5282    2.0537    4.0912 N.pl3     1 <0>         0.0000
     22 O1         -0.5955   -0.7732   -2.9405 O.2       1 <0>         0.0000
     23 O2          1.0131   -0.8045    1.2778 O.2       1 <0>         0.0000
     24 O3          0.9146    1.0820   -1.0384 O.2       1 <0>         0.0000
     25 O4         -4.8537    5.2306   -2.3217 O.2       1 <0>         0.0000
     26 O5         -5.5217    5.0387    0.1374 O.2       1 <0>         0.0000
     27 O6         -4.1438    2.9302    1.3677 O.3       1 <0>         0.0000
     28 S1         -4.4903    5.1311   -0.9026 S.o2      1 <0>         0.0000
     29 Cl1        -2.0902    0.9318    1.8146 Cl        1 <0>         0.0000
     30 H1         -0.7227    2.5194   -2.6020 H         1 <0>         0.0000
     31 H2         -2.5220    4.2500   -2.7018 H         1 <0>         0.0000
     32 H3         -2.8007    2.3207    5.3543 H         1 <0>         0.0000
     33 H4         -1.7214   -3.1822   -1.5206 H         1 <0>         0.0000
     34 H5         -0.5864   -3.3008   -2.8745 H         1 <0>         0.0000
     35 H6          0.9332   -3.3295    1.2113 H         1 <0>         0.0000
     36 H7         -0.8090   -3.1877    0.9312 H         1 <0>         0.0000
     37 H8          1.3335   -3.3396   -1.2637 H         1 <0>         0.0000
     38 H9          0.1907   -4.6100   -0.8458 H         1 <0>         0.0000
     39 H10        -1.6055   -0.8162   -0.1483 H         1 <0>         0.0000
     40 H11        -4.1026    7.4336   -0.5804 H         1 <0>         0.0000
     41 H12        -3.0610    6.4544    0.5050 H         1 <0>         0.0000
     42 H13        -2.6396    6.6262   -1.2354 H         1 <0>         0.0000
     43 H14        -5.8837    3.3265    3.2008 H         1 <0>         0.0000
     44 H15        -4.8263    4.0959    4.4040 H         1 <0>         0.0000
     45 H16        -4.1803    4.8438    2.1776 H         1 <0>         0.0000
     46 H17        -2.8767    3.7732    2.7887 H         1 <0>         0.0000
@<TRIPOS>BOND
     1    1    2 ar
     2    1    4 ar
     3    1   30 1
     4    2    6 ar
     5    2   31 1
     6    3   18 2
     7    3   21 1
     8    3   32 1
     9    4    7 ar
    10    4   10 1
    11    5    6 ar
    12    5    7 ar
    13    5   27 1
    14    6   28 1
    15    7   29 1
    16    8   11 1
    17    8   14 1
    18    8   22 2
    19    9   12 1
    20    9   14 1
    21    9   23 2
    22   10   14 1
    23   10   24 2
    24   11   13 1
    25   11   33 1
    26   11   34 1
    27   12   13 1
    28   12   35 1
    29   12   36 1
    30   13   37 1
    31   13   38 1
    32   14   39 1
    33   15   28 1
    34   15   40 1
    35   15   41 1
    36   15   42 1
    37   16   17 1
    38   16   21 1
    39   16   43 1
    40   16   44 1
    41   17   27 1
    42   17   45 1
    43   17   46 1
    44   18   19 1
    45   19   20 2
    46   20   21 1
    47   25   28 2
    48   26   28 2
