@<TRIPOS>MOLECULE
*****
   65    67     0     0     0
SMALL
NO_CHARGES

@<TRIPOS>ATOM
      1 C1         -2.2091    2.8683   -3.2378 C.ar      1 <0>         0.0000
      2 C2         -1.1446    4.0060   -1.3865 C.ar      1 <0>         0.0000
      3 C3         -0.9807    2.3246   -3.6294 C.ar      1 <0>         0.0000
      4 C4          0.0890    3.4675   -1.7607 C.ar      1 <0>         0.0000
      5 C5         -2.3078    3.7009   -2.1090 C.ar      1 <0>         0.0000
      6 C6         -3.6407    4.2204   -1.6780 C.ar      1 <0>         0.0000
      7 C7         -4.4844    3.3883   -0.9100 C.ar      1 <0>         0.0000
      8 C8         -4.0700    5.5049   -2.0271 C.ar      1 <0>         0.0000
      9 C9          0.1472    2.6271   -2.8706 C.ar      1 <0>         0.0000
     10 C10        -5.7775    3.8501   -0.5985 C.ar      1 <0>         0.0000
     11 C11        -5.3434    5.9215   -1.5726 C.ar      1 <0>         0.0000
     12 C12        -6.0996   -2.0759   -2.1339 C.3       1 <0>         0.0000
     13 C13        -4.9957   -1.5242   -3.0473 C.3       1 <0>         0.0000
     14 C14        -6.3065   -1.1919   -0.8956 C.3       1 <0>         0.0000
     15 C15        -3.6816   -1.3150   -2.2769 C.3       1 <0>         0.0000
     16 C16        -4.9923   -0.9817   -0.1260 C.3       1 <0>         0.0000
     17 C17        -3.8653   -0.4538   -1.0217 C.3       1 <0>         0.0000
     18 C18        -8.0717    2.8598   -0.8063 C.3       1 <0>         0.0000
     19 C19        -7.2094    3.6264    1.4595 C.3       1 <0>         0.0000
     20 C20        -5.9725    8.0104   -0.3696 C.3       1 <0>         0.0000
     21 C21        -7.2207    7.3335   -2.4831 C.3       1 <0>         0.0000
     22 C22        -3.9726    2.0658   -0.4107 C.3       1 <0>         0.0000
     23 C23        -3.1592    6.4281   -2.7987 C.3       1 <0>         0.0000
     24 C24        -6.8364    3.0089    0.1005 C.3       1 <0>         0.0000
     25 C25        -5.8686    7.3333   -1.7504 C.3       1 <0>         0.0000
     26 N1         -6.1642    5.0870   -0.9222 N.ar      1 <0>         0.0000
     27 N2         -4.1726    0.9763   -1.4541 N.4       1 <0>         0.0000
     28 O1         -2.4911    7.2599   -1.8391 O.3       1 <0>         0.0000
     29 F1          1.3344    2.0999   -3.2316 F         1 <0>         0.0000
     30 H1         -3.0873    2.7005   -3.8603 H         1 <0>         0.0000
     31 H2         -1.2060    4.6774   -0.5354 H         1 <0>         0.0000
     32 H3         -0.8860    1.7009   -4.5131 H         1 <0>         0.0000
     33 H4          0.9975    3.6951   -1.2115 H         1 <0>         0.0000
     34 H5         -5.8248   -3.0873   -1.8095 H         1 <0>         0.0000
     35 H6         -7.0368   -2.1696   -2.6905 H         1 <0>         0.0000
     36 H7         -4.8160   -2.2061   -3.8834 H         1 <0>         0.0000
     37 H8         -5.3297   -0.5806   -3.5047 H         1 <0>         0.0000
     38 H9         -6.7424   -0.2261   -1.1950 H         1 <0>         0.0000
     39 H10        -7.0439   -1.6410   -0.2240 H         1 <0>         0.0000
     40 H11        -3.2971   -2.2846   -1.9426 H         1 <0>         0.0000
     41 H12        -2.9040   -0.8844   -2.9204 H         1 <0>         0.0000
     42 H13        -5.1420   -0.3343    0.7440 H         1 <0>         0.0000
     43 H14        -4.6473   -1.9425    0.2711 H         1 <0>         0.0000
     44 H15        -2.9261   -0.3803   -0.4667 H         1 <0>         0.0000
     45 H16        -8.5069    3.8393   -1.0177 H         1 <0>         0.0000
     46 H17        -8.8291    2.2388   -0.3183 H         1 <0>         0.0000
     47 H18        -7.8159    2.3943   -1.7663 H         1 <0>         0.0000
     48 H19        -7.6122    4.6320    1.3154 H         1 <0>         0.0000
     49 H20        -6.3375    3.7020    2.1179 H         1 <0>         0.0000
     50 H21        -7.9664    3.0163    1.9618 H         1 <0>         0.0000
     51 H22        -6.6774    7.4713    0.2700 H         1 <0>         0.0000
     52 H23        -6.3276    9.0391   -0.4844 H         1 <0>         0.0000
     53 H24        -4.9983    8.0386    0.1277 H         1 <0>         0.0000
     54 H25        -7.9699    6.7825   -1.9087 H         1 <0>         0.0000
     55 H26        -7.1408    6.8717   -3.4733 H         1 <0>         0.0000
     56 H27        -7.5740    8.3605   -2.6168 H         1 <0>         0.0000
     57 H28        -2.8992    2.0902   -0.2212 H         1 <0>         0.0000
     58 H29        -4.4762    1.7374    0.4943 H         1 <0>         0.0000
     59 H30        -2.4324    5.8435   -3.3741 H         1 <0>         0.0000
     60 H31        -3.7361    7.0315   -3.5090 H         1 <0>         0.0000
     61 H32        -6.4443    2.0021    0.2863 H         1 <0>         0.0000
     62 H33        -5.1523    7.9081   -2.3398 H         1 <0>         0.0000
     63 H34        -3.5695    1.2269   -2.2507 H         1 <0>         0.0000
     64 H35        -5.1374    1.0308   -1.7974 H         1 <0>         0.0000
     65 H36        -1.9540    7.9120   -2.3184 H         1 <0>         0.0000
@<TRIPOS>BOND
     1    1    3 ar
     2    1    5 ar
     3    1   30 1
     4    2    4 ar
     5    2    5 ar
     6    2   31 1
     7    3    9 ar
     8    3   32 1
     9    4    9 ar
    10    4   33 1
    11    5    6 1
    12    6    7 ar
    13    6    8 ar
    14    7   10 ar
    15    7   22 1
    16    8   11 ar
    17    8   23 1
    18    9   29 1
    19   10   24 1
    20   10   26 ar
    21   11   25 1
    22   11   26 ar
    23   12   14 1
    24   12   13 1
    25   12   34 1
    26   12   35 1
    27   13   15 1
    28   13   36 1
    29   13   37 1
    30   14   16 1
    31   14   38 1
    32   14   39 1
    33   15   17 1
    34   15   40 1
    35   15   41 1
    36   16   17 1
    37   16   42 1
    38   16   43 1
    39   17   27 1
    40   17   44 1
    41   18   24 1
    42   18   45 1
    43   18   46 1
    44   18   47 1
    45   19   24 1
    46   19   48 1
    47   19   49 1
    48   19   50 1
    49   20   25 1
    50   20   51 1
    51   20   52 1
    52   20   53 1
    53   21   25 1
    54   21   54 1
    55   21   55 1
    56   21   56 1
    57   22   27 1
    58   22   57 1
    59   22   58 1
    60   23   28 1
    61   23   59 1
    62   23   60 1
    63   24   61 1
    64   25   62 1
    65   27   63 1
    66   27   64 1
    67   28   65 1
