@<TRIPOS>MOLECULE
*****
   65    67     0     0     0
SMALL
NO_CHARGES

@<TRIPOS>ATOM
      1 C1         -4.2169    2.8211   -1.1587 C.ar      1 <0>         0.0000
      2 C2         -3.4990    4.5443    0.3836 C.ar      1 <0>         0.0000
      3 C3         -2.9010    2.3708   -1.2823 C.ar      1 <0>         0.0000
      4 C4         -2.1773    4.1001    0.2764 C.ar      1 <0>         0.0000
      5 C5         -4.5360    3.9016   -0.3188 C.ar      1 <0>         0.0000
      6 C6         -5.9526    4.3388   -0.1185 C.ar      1 <0>         0.0000
      7 C7         -6.8533    3.5038    0.5806 C.ar      1 <0>         0.0000
      8 C8         -6.3802    5.5993   -0.5546 C.ar      1 <0>         0.0000
      9 C9         -1.9036    3.0138   -0.5507 C.ar      1 <0>         0.0000
     10 C10        -8.1703    3.9619    0.7897 C.ar      1 <0>         0.0000
     11 C11        -7.6929    6.0034   -0.2270 C.ar      1 <0>         0.0000
     12 C12        -4.2762    1.9029    5.7023 C.3       1 <0>         0.0000
     13 C13        -5.6885    1.6083    5.1779 C.3       1 <0>         0.0000
     14 C14        -3.3687    2.4596    4.5965 C.3       1 <0>         0.0000
     15 C15        -5.6590    0.6731    3.9574 C.3       1 <0>         0.0000
     16 C16        -3.3267    1.5176    3.3833 C.3       1 <0>         0.0000
     17 C17        -4.7242    1.1784    2.8528 C.3       1 <0>         0.0000
     18 C18       -10.6530    3.5057    1.0682 C.3       1 <0>         0.0000
     19 C19        -9.0773    3.3312    3.0411 C.3       1 <0>         0.0000
     20 C20        -9.0292    7.9827    0.5880 C.3       1 <0>         0.0000
     21 C21        -9.1109    7.2666   -1.8485 C.3       1 <0>         0.0000
     22 C22        -6.3774    2.1867    1.1408 C.3       1 <0>         0.0000
     23 C23        -5.4434    6.5056   -1.3149 C.3       1 <0>         0.0000
     24 C24        -9.2313    3.1425    1.5178 C.3       1 <0>         0.0000
     25 C25        -8.2389    7.3747   -0.5814 C.3       1 <0>         0.0000
     26 N1         -8.5452    5.1829    0.3992 N.ar      1 <0>         0.0000
     27 N2         -5.3191    2.4244    2.2038 N.4       1 <0>         0.0000
     28 O1         -4.8029    7.3699   -0.3608 O.3       1 <0>         0.0000
     29 F1         -0.6341    2.5732   -0.6520 F         1 <0>         0.0000
     30 H1         -5.0011    2.3414   -1.7389 H         1 <0>         0.0000
     31 H2         -3.7282    5.4148    0.9912 H         1 <0>         0.0000
     32 H3         -2.6409    1.5456   -1.9379 H         1 <0>         0.0000
     33 H4         -1.3682    4.5920    0.8077 H         1 <0>         0.0000
     34 H5         -3.8380    0.9769    6.0954 H         1 <0>         0.0000
     35 H6         -4.3261    2.6057    6.5394 H         1 <0>         0.0000
     36 H7         -6.3021    1.1521    5.9603 H         1 <0>         0.0000
     37 H8         -6.1947    2.5545    4.9319 H         1 <0>         0.0000
     38 H9         -3.7192    3.4582    4.2957 H         1 <0>         0.0000
     39 H10        -2.3521    2.6054    4.9730 H         1 <0>         0.0000
     40 H11        -5.2812   -0.3086    4.2623 H         1 <0>         0.0000
     41 H12        -6.6681    0.5010    3.5672 H         1 <0>         0.0000
     42 H13        -2.7084    1.9302    2.5764 H         1 <0>         0.0000
     43 H14        -2.8597    0.5701    3.6736 H         1 <0>         0.0000
     44 H15        -4.6523    0.4508    2.0401 H         1 <0>         0.0000
     45 H16       -10.8958    4.5376    1.3280 H         1 <0>         0.0000
     46 H17       -11.3739    2.8415    1.5548 H         1 <0>         0.0000
     47 H18       -10.7642    3.3995   -0.0146 H         1 <0>         0.0000
     48 H19        -9.2000    4.3856    3.3069 H         1 <0>         0.0000
     49 H20        -8.0932    3.0077    3.4054 H         1 <0>         0.0000
     50 H21        -9.8323    2.7519    3.5812 H         1 <0>         0.0000
     51 H22        -9.9034    7.3736    0.8284 H         1 <0>         0.0000
     52 H23        -9.3684    8.9882    0.3211 H         1 <0>         0.0000
     53 H24        -8.4079    8.0622    1.4860 H         1 <0>         0.0000
     54 H25        -9.9638    6.6054   -1.6668 H         1 <0>         0.0000
     55 H26        -8.5462    6.8668   -2.6981 H         1 <0>         0.0000
     56 H27        -9.4939    8.2522   -2.1301 H         1 <0>         0.0000
     57 H28        -7.1752    1.6206    1.6122 H         1 <0>         0.0000
     58 H29        -5.8981    1.5511    0.3960 H         1 <0>         0.0000
     59 H30        -4.6984    5.9082   -1.8534 H         1 <0>         0.0000
     60 H31        -5.9988    7.0889   -2.0569 H         1 <0>         0.0000
     61 H32        -9.0823    2.0819    1.2839 H         1 <0>         0.0000
     62 H33        -7.3968    8.0388   -0.7890 H         1 <0>         0.0000
     63 H34        -5.7151    3.0382    2.9238 H         1 <0>         0.0000
     64 H35        -4.5644    2.9664    1.7554 H         1 <0>         0.0000
     65 H36        -4.2805    8.0284   -0.8477 H         1 <0>         0.0000
@<TRIPOS>BOND
     1    1    3 ar
     2    1    5 ar
     3    1   30 1
     4    2    4 ar
     5    2    5 ar
     6    2   31 1
     7    3    9 ar
     8    3   32 1
     9    4    9 ar
    10    4   33 1
    11    5    6 1
    12    6    7 ar
    13    6    8 ar
    14    7   10 ar
    15    7   22 1
    16    8   11 ar
    17    8   23 1
    18    9   29 1
    19   10   24 1
    20   10   26 ar
    21   11   25 1
    22   11   26 ar
    23   12   14 1
    24   12   13 1
    25   12   34 1
    26   12   35 1
    27   13   15 1
    28   13   36 1
    29   13   37 1
    30   14   16 1
    31   14   38 1
    32   14   39 1
    33   15   17 1
    34   15   40 1
    35   15   41 1
    36   16   17 1
    37   16   42 1
    38   16   43 1
    39   17   27 1
    40   17   44 1
    41   18   24 1
    42   18   45 1
    43   18   46 1
    44   18   47 1
    45   19   24 1
    46   19   48 1
    47   19   49 1
    48   19   50 1
    49   20   25 1
    50   20   51 1
    51   20   52 1
    52   20   53 1
    53   21   25 1
    54   21   54 1
    55   21   55 1
    56   21   56 1
    57   22   27 1
    58   22   57 1
    59   22   58 1
    60   23   28 1
    61   23   59 1
    62   23   60 1
    63   24   61 1
    64   25   62 1
    65   27   63 1
    66   27   64 1
    67   28   65 1
