@<TRIPOS>MOLECULE
*****
   51    52     0     0     0
SMALL
NO_CHARGES

@<TRIPOS>ATOM
      1 C1          1.3900   -5.7234   11.2903 C.ar      1 <0>         0.0000
      2 C2          3.0844   -6.9956    9.4529 C.ar      1 <0>         0.0000
      3 C3          5.2110   -6.8283   12.3196 C.ar      1 <0>         0.0000
      4 C4          2.6944   -6.0960   11.6951 C.ar      1 <0>         0.0000
      5 C5          3.5580   -6.7334   10.7620 C.ar      1 <0>         0.0000
      6 C6          0.9447   -5.9756   10.0091 C.ar      1 <0>         0.0000
      7 C7          1.8071   -6.6295    9.0757 C.ar      1 <0>         0.0000
      8 C8          3.2445   -5.8736   13.0120 C.ar      1 <0>         0.0000
      9 C9          2.8068   -6.4455   16.1419 C.3       1 <0>         0.0000
     10 C10         2.1818   -3.9809   16.0271 C.3       1 <0>         0.0000
     11 C11        -1.2894   -6.4971    9.3464 C.3       1 <0>         0.0000
     12 C12        -2.9177   -2.2547    5.7328 C.3       1 <0>         0.0000
     13 C13         1.1665   -5.7471    5.7141 C.3       1 <0>         0.0000
     14 C14         0.5841   -4.4808    6.3576 C.3       1 <0>         0.0000
     15 C15         2.0960   -6.4730    6.6831 C.3       1 <0>         0.0000
     16 C16        -0.6218   -3.9208    5.6093 C.3       1 <0>         0.0000
     17 C17         2.9573   -5.1261   15.3735 C.3       1 <0>         0.0000
     18 N1          4.8392   -7.1037   11.0864 N.ar      1 <0>         0.0000
     19 N2          4.4916   -6.2430   13.3066 N.ar      1 <0>         0.0000
     20 N3         -2.0777   -3.3512    7.9550 N.2       1 <0>         0.0000
     21 N4          2.5106   -5.2602   13.9814 N.pl3     1 <0>         0.0000
     22 O1         -0.5340   -1.5264    6.7551 O.2       1 <0>         0.0000
     23 O2         -0.2867   -5.4978    9.6163 O.3       1 <0>         0.0000
     24 O3          1.3007   -6.8574    7.8257 O.3       1 <0>         0.0000
     25 S1         -1.4594   -2.6896    6.6954 S.o       1 <0>         0.0000
     26 H1          0.7076   -5.1931   11.9486 H         1 <0>         0.0000
     27 H2          3.7543   -7.4908    8.7571 H         1 <0>         0.0000
     28 H3          6.2267   -7.1091   12.5969 H         1 <0>         0.0000
     29 H4          1.7533   -6.7438   16.2014 H         1 <0>         0.0000
     30 H5          3.3694   -7.2396   15.6450 H         1 <0>         0.0000
     31 H6          3.1887   -6.3402   17.1633 H         1 <0>         0.0000
     32 H7          1.1060   -4.1975   16.0565 H         1 <0>         0.0000
     33 H8          2.3299   -3.0436   15.4822 H         1 <0>         0.0000
     34 H9          2.5148   -3.8375   17.0591 H         1 <0>         0.0000
     35 H10        -2.1659   -5.9498    8.9967 H         1 <0>         0.0000
     36 H11        -1.5270   -7.0457   10.2658 H         1 <0>         0.0000
     37 H12        -0.9500   -7.1915    8.5736 H         1 <0>         0.0000
     38 H13        -3.4487   -1.5001    6.3144 H         1 <0>         0.0000
     39 H14        -2.5853   -1.8405    4.7798 H         1 <0>         0.0000
     40 H15        -3.5410   -3.1384    5.5963 H         1 <0>         0.0000
     41 H16         0.3583   -6.4344    5.4372 H         1 <0>         0.0000
     42 H17         1.7195   -5.5134    4.7961 H         1 <0>         0.0000
     43 H18         1.3538   -3.7070    6.4419 H         1 <0>         0.0000
     44 H19         0.2708   -4.7418    7.3716 H         1 <0>         0.0000
     45 H20         2.5249   -7.3729    6.2286 H         1 <0>         0.0000
     46 H21         2.9142   -5.8226    7.0104 H         1 <0>         0.0000
     47 H22        -0.3484   -3.4130    4.6796 H         1 <0>         0.0000
     48 H23        -1.3635   -4.6995    5.4057 H         1 <0>         0.0000
     49 H24         4.0180   -4.8694   15.3295 H         1 <0>         0.0000
     50 H25        -1.3498   -3.5956    8.6324 H         1 <0>         0.0000
     51 H26         1.5210   -5.1450   13.8141 H         1 <0>         0.0000
@<TRIPOS>BOND
     1    1    4 ar
     2    1    6 ar
     3    1   26 1
     4    2    5 ar
     5    2    7 ar
     6    2   27 1
     7    3   18 ar
     8    3   19 ar
     9    3   28 1
    10    4    5 ar
    11    4    8 ar
    12    5   18 ar
    13    6    7 ar
    14    6   23 1
    15    7   24 1
    16    8   19 ar
    17    8   21 1
    18    9   17 1
    19    9   29 1
    20    9   30 1
    21    9   31 1
    22   10   17 1
    23   10   32 1
    24   10   33 1
    25   10   34 1
    26   11   23 1
    27   11   35 1
    28   11   36 1
    29   11   37 1
    30   12   25 1
    31   12   38 1
    32   12   39 1
    33   12   40 1
    34   13   14 1
    35   13   15 1
    36   13   41 1
    37   13   42 1
    38   14   16 1
    39   14   43 1
    40   14   44 1
    41   15   24 1
    42   15   45 1
    43   15   46 1
    44   16   25 1
    45   16   47 1
    46   16   48 1
    47   17   21 1
    48   17   49 1
    49   20   25 2
    50   20   50 1
    51   21   51 1
    52   22   25 2
