@<TRIPOS>MOLECULE
*****
   55    58     0     0     0
SMALL
NO_CHARGES

@<TRIPOS>ATOM
      1 C1          2.2826    2.2830    1.1216 C.ar      1 <0>         0.0000
      2 C2          1.7230    1.7376   -0.0587 C.ar      1 <0>         0.0000
      3 C3          2.0808    1.7167    2.3851 C.ar      1 <0>         0.0000
      4 C4          0.7546    0.0134    1.2527 C.ar      1 <0>         0.0000
      5 C5          0.9390    0.5836   -0.0087 C.ar      1 <0>         0.0000
      6 C6         -0.0115   -1.1451    1.5830 C.2       1 <0>         0.0000
      7 C7          1.3001    0.5548    2.4374 C.ar      1 <0>         0.0000
      8 C8          0.0732   -1.2944    2.9471 C.2       1 <0>         0.0000
      9 C9         -0.5942   -1.9471    0.4588 C.3       1 <0>         0.0000
     10 C10        -0.3382    0.9902   -2.1614 C.3       1 <0>         0.0000
     11 C11        -1.6254   -0.9450   -3.0898 C.3       1 <0>         0.0000
     12 C12         0.2199   -0.0738   -1.1773 C.3       1 <0>         0.0000
     13 C13        -1.6621    0.5571   -2.8169 C.3       1 <0>         0.0000
     14 C14        -0.9490   -1.0028   -0.7143 C.3       1 <0>         0.0000
     15 C15        -1.3765   -5.3038   -3.2823 C.3       1 <0>         0.0000
     16 C16        -1.4038   -2.6677    6.0040 C.3       1 <0>         0.0000
     17 C17        -2.5134    3.6446   -5.5095 C.3       1 <0>         0.0000
     18 C18        -0.4703   -2.3432    3.8551 C.3       1 <0>         0.0000
     19 C19        -1.9481    1.3146   -4.1157 C.3       1 <0>         0.0000
     20 C20        -1.8491   -3.8505   -3.1620 C.3       1 <0>         0.0000
     21 C21        -1.0146   -3.0701   -2.1382 C.3       1 <0>         0.0000
     22 N1          0.8994   -0.2862    3.4673 N.pl3     1 <0>         0.0000
     23 N2         -1.5571   -1.7400   -1.8524 N.3       1 <0>         0.0000
     24 O1         -0.9364   -1.7219    5.0540 O.3       1 <0>         0.0000
     25 S1         -2.0757    3.1212   -3.8180 S.3       1 <0>         0.0000
     26 H1          2.8863    3.1838    1.0438 H         1 <0>         0.0000
     27 H2          1.9017    2.2442   -1.0036 H         1 <0>         0.0000
     28 H3          2.5148    2.1668    3.2743 H         1 <0>         0.0000
     29 H4          0.1520   -2.6826    0.1379 H         1 <0>         0.0000
     30 H5         -1.4910   -2.5031    0.7547 H         1 <0>         0.0000
     31 H6         -0.4900    1.9329   -1.6297 H         1 <0>         0.0000
     32 H7          0.4006    1.1941   -2.9452 H         1 <0>         0.0000
     33 H8         -2.5135   -1.2447   -3.6575 H         1 <0>         0.0000
     34 H9         -0.7513   -1.1499   -3.7399 H         1 <0>         0.0000
     35 H10         0.9388   -0.7086   -1.7144 H         1 <0>         0.0000
     36 H11        -2.4913    0.7575   -2.1284 H         1 <0>         0.0000
     37 H12        -1.7274   -0.3387   -0.3183 H         1 <0>         0.0000
     38 H13        -0.3238   -5.3554   -3.5841 H         1 <0>         0.0000
     39 H14        -1.4738   -5.8344   -2.3280 H         1 <0>         0.0000
     40 H15        -1.9624   -5.8509   -4.0283 H         1 <0>         0.0000
     41 H16        -1.7274   -2.1072    6.8836 H         1 <0>         0.0000
     42 H17        -0.6093   -3.3714    6.2954 H         1 <0>         0.0000
     43 H18        -2.2555   -3.2422    5.6106 H         1 <0>         0.0000
     44 H19        -2.6282    4.7312   -5.4942 H         1 <0>         0.0000
     45 H20        -3.4578    3.1954   -5.8313 H         1 <0>         0.0000
     46 H21        -1.7231    3.3849   -6.2202 H         1 <0>         0.0000
     47 H22        -1.2857   -2.8813    3.3500 H         1 <0>         0.0000
     48 H23         0.3071   -3.0831    4.1131 H         1 <0>         0.0000
     49 H24        -2.8939    0.9708   -4.5498 H         1 <0>         0.0000
     50 H25        -1.1494    1.1309   -4.8450 H         1 <0>         0.0000
     51 H26        -2.8999   -3.8182   -2.8492 H         1 <0>         0.0000
     52 H27        -1.7968   -3.3754   -4.1471 H         1 <0>         0.0000
     53 H28        -1.0110   -3.6577   -1.2189 H         1 <0>         0.0000
     54 H29         0.0345   -3.0243   -2.4966 H         1 <0>         0.0000
     55 H30         0.9002   -0.0527    4.4513 H         1 <0>         0.0000
@<TRIPOS>BOND
     1    1    2 ar
     2    1    3 ar
     3    1   26 1
     4    2    5 ar
     5    2   27 1
     6    3    7 ar
     7    3   28 1
     8    4    5 ar
     9    4    6 1
    10    4    7 ar
    11    5   12 1
    12    6    8 2
    13    6    9 1
    14    7   22 1
    15    8   18 1
    16    8   22 1
    17    9   14 1
    18    9   29 1
    19    9   30 1
    20   10   12 1
    21   10   13 1
    22   10   31 1
    23   10   32 1
    24   11   13 1
    25   11   23 1
    26   11   33 1
    27   11   34 1
    28   12   14 1
    29   12   35 1
    30   13   19 1
    31   13   36 1
    32   14   23 1
    33   14   37 1
    34   15   20 1
    35   15   38 1
    36   15   39 1
    37   15   40 1
    38   16   24 1
    39   16   41 1
    40   16   42 1
    41   16   43 1
    42   17   25 1
    43   17   44 1
    44   17   45 1
    45   17   46 1
    46   18   24 1
    47   18   47 1
    48   18   48 1
    49   19   25 1
    50   19   49 1
    51   19   50 1
    52   20   21 1
    53   20   51 1
    54   20   52 1
    55   21   23 1
    56   21   53 1
    57   21   54 1
    58   22   55 1
