@<TRIPOS>MOLECULE
*****
   30    32     0     0     0
SMALL
NO_CHARGES

@<TRIPOS>ATOM
      1 C1         -2.3607   -1.8384   -4.8468 C.ar      1 <0>         0.0000
      2 C2         -1.3965   -2.6387   -5.4890 C.ar      1 <0>         0.0000
      3 C3         -2.1403   -1.3424   -3.5625 C.ar      1 <0>         0.0000
      4 C4         -0.1895   -2.9698   -4.8679 C.ar      1 <0>         0.0000
      5 C5          0.8349   -1.9059   -1.5265 C.2       1 <0>         0.0000
      6 C6         -0.9295   -1.6506   -2.9233 C.ar      1 <0>         0.0000
      7 C7         -0.3846   -1.3028   -1.6202 C.2       1 <0>         0.0000
      8 C8          0.0254   -2.4649   -3.5824 C.ar      1 <0>         0.0000
      9 C9          2.2810   -3.3599   -2.9587 C.2       1 <0>         0.0000
     10 C10        -1.2197    1.1069   -0.9623 C.3       1 <0>         0.0000
     11 C11        -2.5778    0.9614   -0.2346 C.3       1 <0>         0.0000
     12 C12        -0.9866   -0.3927   -0.6031 C.3       1 <0>         0.0000
     13 C13         3.3173   -3.3882   -1.8506 C.3       1 <0>         0.0000
     14 N1          1.1231   -2.6220   -2.7054 N.am      1 <0>         0.0000
     15 N2         -2.4587   -0.5151   -0.3856 N.3       1 <0>         0.0000
     16 O1          2.4449   -3.9486   -4.0182 O.2       1 <0>         0.0000
     17 H1         -3.2928   -1.6125   -5.3585 H         1 <0>         0.0000
     18 H2         -1.5944   -3.0151   -6.4892 H         1 <0>         0.0000
     19 H3         -2.8901   -0.7532   -3.0460 H         1 <0>         0.0000
     20 H4          0.5504   -3.5905   -5.3550 H         1 <0>         0.0000
     21 H5          1.5423   -1.8800   -0.7109 H         1 <0>         0.0000
     22 H6         -1.3306    1.2549   -2.0382 H         1 <0>         0.0000
     23 H7         -0.5002    1.8243   -0.5632 H         1 <0>         0.0000
     24 H8         -2.5271    1.3131    0.8061 H         1 <0>         0.0000
     25 H9         -3.4629    1.3924   -0.7140 H         1 <0>         0.0000
     26 H10        -0.4097   -0.4620    0.3324 H         1 <0>         0.0000
     27 H11         2.9067   -3.8192   -0.9322 H         1 <0>         0.0000
     28 H12         3.6809   -2.3819   -1.6198 H         1 <0>         0.0000
     29 H13         4.1514   -4.0003   -2.1922 H         1 <0>         0.0000
     30 H14        -2.7274   -1.0682    0.4265 H         1 <0>         0.0000
@<TRIPOS>BOND
     1    1    2 ar
     2    1    3 ar
     3    1   17 1
     4    2    4 ar
     5    2   18 1
     6    3    6 ar
     7    3   19 1
     8    4    8 ar
     9    4   20 1
    10    5    7 2
    11    5   14 1
    12    5   21 1
    13    6    7 1
    14    6    8 ar
    15    7   12 1
    16    8   14 1
    17    9   13 1
    18    9   14 am
    19    9   16 2
    20   10   11 1
    21   10   12 1
    22   10   22 1
    23   10   23 1
    24   11   15 1
    25   11   24 1
    26   11   25 1
    27   12   15 1
    28   12   26 1
    29   13   27 1
    30   13   28 1
    31   13   29 1
    32   15   30 1
