@<TRIPOS>MOLECULE
*****
   27    28     0     0     0
SMALL
NO_CHARGES

@<TRIPOS>ATOM
      1 C1          5.6960    1.4860   -0.0760 C.ar      1 <0>         0.0000
      2 C2          4.4260    1.9980    0.1750 C.ar      1 <0>         0.0000
      3 C3          5.8540    0.1310   -0.3530 C.ar      1 <0>         0.0000
      4 C4          3.3130    1.1640    0.1440 C.ar      1 <0>         0.0000
      5 C5          4.7470   -0.7110   -0.3850 C.ar      1 <0>         0.0000
      6 C6          3.4660   -0.1990   -0.1470 C.ar      1 <0>         0.0000
      7 C7          0.8990   -2.1310   -1.7080 C.3       1 <0>         0.0000
      8 C8          0.1220   -1.7800   -0.4430 C.3       1 <0>         0.0000
      9 C9          2.3450   -2.1470   -1.2020 C.3       1 <0>         0.0000
     10 C10         0.9910   -0.6600    0.1340 C.3       1 <0>         0.0000
     11 C11         0.8520   -0.6600    1.6620 C.3       1 <0>         0.0000
     12 N1          2.3520   -1.0780   -0.1930 N.pl3     1 <0>         0.0000
     13 H1          6.5410    2.1250   -0.0520 H         1 <0>         0.0000
     14 H2          4.3070    3.0280    0.3910 H         1 <0>         0.0000
     15 H3          6.8210   -0.2610   -0.5360 H         1 <0>         0.0000
     16 H4          2.3580    1.5690    0.3370 H         1 <0>         0.0000
     17 H5          4.8770   -1.7430   -0.5750 H         1 <0>         0.0000
     18 H6          0.6020   -3.0970   -2.1150 H         1 <0>         0.0000
     19 H7          0.7810   -1.3420   -2.4520 H         1 <0>         0.0000
     20 H8         -0.8870   -1.4340   -0.6660 H         1 <0>         0.0000
     21 H9          0.0990   -2.6450    0.2230 H         1 <0>         0.0000
     22 H10         3.0130   -1.9260   -2.0250 H         1 <0>         0.0000
     23 H11         2.5490   -3.0910   -0.7140 H         1 <0>         0.0000
     24 H12         0.7320    0.2920   -0.3120 H         1 <0>         0.0000
     25 H13        -0.1900   -0.4650    1.9160 H         1 <0>         0.0000
     26 H14         1.4920    0.1220    2.0660 H         1 <0>         0.0000
     27 H15         1.1720   -1.6290    2.0460 H         1 <0>         0.0000
@<TRIPOS>BOND
     1    1    2 ar
     2    1    3 ar
     3    1   13 1
     4    2    4 ar
     5    2   14 1
     6    3    5 ar
     7    3   15 1
     8    4    6 ar
     9    4   16 1
    10    5    6 ar
    11    5   17 1
    12    6   12 1
    13    7    8 1
    14    7    9 1
    15    7   18 1
    16    7   19 1
    17    8   10 1
    18    8   20 1
    19    8   21 1
    20    9   12 1
    21    9   22 1
    22    9   23 1
    23   10   11 1
    24   10   12 1
    25   10   24 1
    26   11   25 1
    27   11   26 1
    28   11   27 1
