@<TRIPOS>MOLECULE
*****
   37    37     0     0     0
SMALL
NO_CHARGES

@<TRIPOS>ATOM
      1 C1          1.4183    4.1599    2.3962 C.2       1 <0>         0.0000
      2 C2         -0.4329    3.2044    2.6739 C.2       1 <0>         0.0000
      3 C3         -0.5366    1.6369   -0.3388 C.2       1 <0>         0.0000
      4 C4         -1.8029    1.7286   -0.7756 C.2       1 <0>         0.0000
      5 C5         -2.0904    2.1096   -2.2082 C.3       1 <0>         0.0000
      6 C6         -3.0343    1.4607    0.0551 C.3       1 <0>         0.0000
      7 C7         -0.5127   -1.6881    1.4231 C.3       1 <0>         0.0000
      8 C8          1.9460   -2.0753    1.1255 C.3       1 <0>         0.0000
      9 C9          0.5589   -1.3482   -0.8297 C.3       1 <0>         0.0000
     10 C10        -0.0915    1.2634    1.0503 C.3       1 <0>         0.0000
     11 C11         1.0892    0.2563    1.1045 C.3       1 <0>         0.0000
     12 C12         0.7511   -1.2012    0.6912 C.3       1 <0>         0.0000
     13 N1          0.2456    4.2742    3.0786 N.2       1 <0>         0.0000
     14 N2          1.4978    3.0943    1.6035 N.2       1 <0>         0.0000
     15 N3          0.2966    2.4800    1.7994 N.pl3     1 <0>         0.0000
     16 O1          2.1849    0.7012    0.3143 O.3       1 <0>         0.0000
     17 H1          2.2331    4.8671    2.4814 H         1 <0>         0.0000
     18 H2         -1.4316    2.9239    2.9827 H         1 <0>         0.0000
     19 H3          0.2768    1.8505   -1.0278 H         1 <0>         0.0000
     20 H4         -2.6473    1.3126   -2.7178 H         1 <0>         0.0000
     21 H5         -2.7156    3.0102   -2.2549 H         1 <0>         0.0000
     22 H6         -1.1727    2.2991   -2.7704 H         1 <0>         0.0000
     23 H7         -3.6730    2.3523    0.0853 H         1 <0>         0.0000
     24 H8         -2.8196    1.1714    1.0855 H         1 <0>         0.0000
     25 H9         -3.6344    0.6618   -0.3980 H         1 <0>         0.0000
     26 H10        -1.4203   -1.2052    1.0456 H         1 <0>         0.0000
     27 H11        -0.4501   -1.5107    2.5041 H         1 <0>         0.0000
     28 H12        -0.6374   -2.7659    1.2757 H         1 <0>         0.0000
     29 H13         2.8708   -1.7271    0.6591 H         1 <0>         0.0000
     30 H14         1.7814   -3.1180    0.8330 H         1 <0>         0.0000
     31 H15         2.0812   -2.0492    2.2134 H         1 <0>         0.0000
     32 H16         1.4316   -0.9719   -1.3685 H         1 <0>         0.0000
     33 H17         0.4273   -2.4064   -1.0828 H         1 <0>         0.0000
     34 H18        -0.3209   -0.8061   -1.1843 H         1 <0>         0.0000
     35 H19        -0.9153    0.8460    1.6274 H         1 <0>         0.0000
     36 H20         1.3873    0.2207    2.1656 H         1 <0>         0.0000
     37 H21         2.4090    1.5998    0.6298 H         1 <0>         0.0000
@<TRIPOS>BOND
     1    1   13 1
     2    1   14 2
     3    1   17 1
     4    2   13 2
     5    2   15 1
     6    2   18 1
     7    3    4 2
     8    3   10 1
     9    3   19 1
    10    4    5 1
    11    4    6 1
    12    5   20 1
    13    5   21 1
    14    5   22 1
    15    6   23 1
    16    6   24 1
    17    6   25 1
    18    7   12 1
    19    7   26 1
    20    7   27 1
    21    7   28 1
    22    8   12 1
    23    8   29 1
    24    8   30 1
    25    8   31 1
    26    9   12 1
    27    9   32 1
    28    9   33 1
    29    9   34 1
    30   10   11 1
    31   10   15 1
    32   10   35 1
    33   11   12 1
    34   11   16 1
    35   11   36 1
    36   14   15 1
    37   16   37 1
