@<TRIPOS>MOLECULE
*****
   27    27     0     0     0
SMALL
NO_CHARGES

@<TRIPOS>ATOM
      1 C1         -4.1249    0.3658    0.8858 C.ar      1 <0>         0.0000
      2 C2         -3.3380   -1.9167    0.7974 C.ar      1 <0>         0.0000
      3 C3         -2.9820    0.7323    1.5966 C.ar      1 <0>         0.0000
      4 C4         -2.1951   -1.5503    1.5081 C.ar      1 <0>         0.0000
      5 C5         -4.3029   -0.9587    0.4862 C.ar      1 <0>         0.0000
      6 C6         -2.0171   -0.2257    1.9077 C.ar      1 <0>         0.0000
      7 C7         -1.0152    0.8786    4.3319 C.2       1 <0>         0.0000
      8 C8          0.2795    1.4522    1.9504 C.2       1 <0>         0.0000
      9 C9         -5.4962   -1.3415   -0.2516 C.2       1 <0>         0.0000
     10 C10        -6.7539   -0.5660    0.0132 C.3       1 <0>         0.0000
     11 C11         0.4277   -1.1542    3.0152 C.3       1 <0>         0.0000
     12 O1         -5.5545   -2.2577   -1.0746 O.2       1 <0>         0.0000
     13 S1         -0.5867    0.2335    2.7976 S.3       1 <0>         0.0000
     14 H1         -4.8712    1.1202    0.6504 H         1 <0>         0.0000
     15 H2         -3.4667   -2.9520    0.4918 H         1 <0>         0.0000
     16 H3         -2.8526    1.7668    1.9025 H         1 <0>         0.0000
     17 H4         -1.4494   -2.3040    1.7458 H         1 <0>         0.0000
     18 H5         -0.2437    1.2237    5.0360 H         1 <0>         0.0000
     19 H6         -2.0691    0.9494    4.6381 H         1 <0>         0.0000
     20 H7          1.2120    1.8677    2.3595 H         1 <0>         0.0000
     21 H8         -0.0872    1.8423    0.9893 H         1 <0>         0.0000
     22 H9         -6.8833    0.3117   -0.6396 H         1 <0>         0.0000
     23 H10        -6.8370   -0.2181    1.0546 H         1 <0>         0.0000
     24 H11        -7.6727   -1.1556   -0.1546 H         1 <0>         0.0000
     25 H12         1.3148   -0.8484    3.5721 H         1 <0>         0.0000
     26 H13        -0.1328   -1.9066    3.5719 H         1 <0>         0.0000
     27 H14         0.7062   -1.5347    2.0313 H         1 <0>         0.0000
@<TRIPOS>BOND
     1    1    3 ar
     2    1    5 ar
     3    1   14 1
     4    2    4 ar
     5    2    5 ar
     6    2   15 1
     7    3    6 ar
     8    3   16 1
     9    4    6 ar
    10    4   17 1
    11    5    9 1
    12    6   13 1
    13    7   13 2
    14    7   18 1
    15    7   19 1
    16    8   13 2
    17    8   20 1
    18    8   21 1
    19    9   10 1
    20    9   12 2
    21   10   22 1
    22   10   23 1
    23   10   24 1
    24   11   13 1
    25   11   25 1
    26   11   26 1
    27   11   27 1
