@<TRIPOS>MOLECULE
*****
   44    46     0     0     0
SMALL
NO_CHARGES

@<TRIPOS>ATOM
      1 C1          2.4426   -2.2110    1.7830 C.ar      1 <0>         0.0000
      2 C2          2.3211   -0.4760    0.1061 C.ar      1 <0>         0.0000
      3 C3          3.0369   -5.4746    0.4346 C.ar      1 <0>         0.0000
      4 C4          2.1735   -4.6486   -1.6652 C.ar      1 <0>         0.0000
      5 C5          1.3643   -1.6363    2.4558 C.ar      1 <0>         0.0000
      6 C6          1.2428    0.0987    0.7788 C.ar      1 <0>         0.0000
      7 C7          2.0851   -6.4942    0.4250 C.ar      1 <0>         0.0000
      8 C8          1.2217   -5.6682   -1.6749 C.ar      1 <0>         0.0000
      9 C9          5.9609   -2.4276   -0.9592 C.2       1 <0>         0.0000
     10 C10         2.9210   -1.6309    0.6081 C.ar      1 <0>         0.0000
     11 C11         3.0812   -4.5518   -0.6104 C.ar      1 <0>         0.0000
     12 C12         0.7644   -0.4815    1.9537 C.ar      1 <0>         0.0000
     13 C13         1.1775   -6.5910   -0.6299 C.ar      1 <0>         0.0000
     14 C14         4.0314   -2.2217   -0.0846 C.2       1 <0>         0.0000
     15 C15         4.0670   -3.4958   -0.6004 C.2       1 <0>         0.0000
     16 C16        -0.7264   -0.5652    3.8047 C.3       1 <0>         0.0000
     17 C17         0.2596   -8.4949    0.4604 C.3       1 <0>         0.0000
     18 C18         6.7253   -6.9079   -1.4250 C.3       1 <0>         0.0000
     19 C19         5.8597   -4.7637   -1.8360 C.3       1 <0>         0.0000
     20 N1          5.2132   -1.5619   -0.3115 N.2       1 <0>         0.0000
     21 N2          5.3091   -3.6129   -1.1579 N.pl3     1 <0>         0.0000
     22 O1         -0.2879    0.0795    2.6098 O.3       1 <0>         0.0000
     23 O2          0.2487   -7.5859   -0.6394 O.3       1 <0>         0.0000
     24 O3          6.1985   -5.7229   -0.8439 O.3       1 <0>         0.0000
     25 H1          2.8994   -3.1114    2.1870 H         1 <0>         0.0000
     26 H2          2.6826   -0.0114   -0.8083 H         1 <0>         0.0000
     27 H3          3.7375   -5.4125    1.2640 H         1 <0>         0.0000
     28 H4          2.1951   -3.9370   -2.4872 H         1 <0>         0.0000
     29 H5          0.9956   -2.0924    3.3705 H         1 <0>         0.0000
     30 H6          0.7805    0.9988    0.3827 H         1 <0>         0.0000
     31 H7          2.0555   -7.2101    1.2418 H         1 <0>         0.0000
     32 H8          0.5173   -5.7385   -2.4993 H         1 <0>         0.0000
     33 H9          6.9703   -2.2542   -1.3061 H         1 <0>         0.0000
     34 H10        -1.5711   -0.0156    4.2272 H         1 <0>         0.0000
     35 H11         0.0958   -0.5998    4.5239 H         1 <0>         0.0000
     36 H12        -1.0408   -1.5836    3.5644 H         1 <0>         0.0000
     37 H13        -0.5309   -9.2376    0.3280 H         1 <0>         0.0000
     38 H14         0.1043   -7.9438    1.3913 H         1 <0>         0.0000
     39 H15         1.2282   -8.9992    0.4951 H         1 <0>         0.0000
     40 H16         6.9744   -7.6219   -0.6362 H         1 <0>         0.0000
     41 H17         7.6184   -6.6640   -2.0058 H         1 <0>         0.0000
     42 H18         5.9722   -7.3454   -2.0848 H         1 <0>         0.0000
     43 H19         5.1051   -5.1576   -2.5258 H         1 <0>         0.0000
     44 H20         6.7455   -4.4480   -2.3985 H         1 <0>         0.0000
@<TRIPOS>BOND
     1    1    5 ar
     2    1   10 ar
     3    1   25 1
     4    2    6 ar
     5    2   10 ar
     6    2   26 1
     7    3    7 ar
     8    3   11 ar
     9    3   27 1
    10    4    8 ar
    11    4   11 ar
    12    4   28 1
    13    5   12 ar
    14    5   29 1
    15    6   12 ar
    16    6   30 1
    17    7   13 ar
    18    7   31 1
    19    8   13 ar
    20    8   32 1
    21    9   20 2
    22    9   21 1
    23    9   33 1
    24   10   14 1
    25   11   15 1
    26   12   22 1
    27   13   23 1
    28   14   15 2
    29   14   20 1
    30   15   21 1
    31   16   22 1
    32   16   34 1
    33   16   35 1
    34   16   36 1
    35   17   23 1
    36   17   37 1
    37   17   38 1
    38   17   39 1
    39   18   24 1
    40   18   40 1
    41   18   41 1
    42   18   42 1
    43   19   21 1
    44   19   24 1
    45   19   43 1
    46   19   44 1
