@<TRIPOS>MOLECULE
*****
   24    23     0     0     0
SMALL
NO_CHARGES

@<TRIPOS>ATOM
      1 C1          1.0386   -1.7211    5.1876 C.2       1 <0>         0.0000
      2 C2          2.0000   -1.8887    6.3203 C.2       1 <0>         0.0000
      3 C3          1.5117   -1.4561    7.6673 C.3       1 <0>         0.0000
      4 C4         -0.3131   -0.2824    1.0112 C.3       1 <0>         0.0000
      5 C5          1.7186    0.7753    2.0319 C.3       1 <0>         0.0000
      6 C6          1.7649   -1.6386    1.3541 C.3       1 <0>         0.0000
      7 C7          0.8955   -0.5127    1.9258 C.3       1 <0>         0.0000
      8 N1          1.3816   -0.9650    4.2044 N.2       1 <0>         0.0000
      9 N2          0.4313   -0.8895    3.2486 N.pl3     1 <0>         0.0000
     10 O1          3.0922   -2.3841    6.0918 O.2       1 <0>         0.0000
     11 H1          0.0873   -2.2733    5.2843 H         1 <0>         0.0000
     12 H2          1.0248   -2.2951    8.1707 H         1 <0>         0.0000
     13 H3          0.7821   -0.6504    7.5488 H         1 <0>         0.0000
     14 H4          2.3508   -1.0913    8.2645 H         1 <0>         0.0000
     15 H5         -0.9191   -1.1913    0.9190 H         1 <0>         0.0000
     16 H6         -0.9587    0.5146    1.3965 H         1 <0>         0.0000
     17 H7          0.0044   -0.0009    0.0004 H         1 <0>         0.0000
     18 H8          2.5900    0.6352    2.6821 H         1 <0>         0.0000
     19 H9          1.1235    1.5906    2.4595 H         1 <0>         0.0000
     20 H10         2.0794    1.1003    1.0498 H         1 <0>         0.0000
     21 H11         2.6383   -1.8247    1.9898 H         1 <0>         0.0000
     22 H12         1.2017   -2.5747    1.2716 H         1 <0>         0.0000
     23 H13         2.1393   -1.3819    0.3563 H         1 <0>         0.0000
     24 H14        -0.1197   -1.7472    3.2008 H         1 <0>         0.0000
@<TRIPOS>BOND
     1    1    2 1
     2    1    8 2
     3    1   11 1
     4    2    3 1
     5    2   10 2
     6    3   12 1
     7    3   13 1
     8    3   14 1
     9    4    7 1
    10    4   15 1
    11    4   16 1
    12    4   17 1
    13    5    7 1
    14    5   18 1
    15    5   19 1
    16    5   20 1
    17    6    7 1
    18    6   21 1
    19    6   22 1
    20    6   23 1
    21    7    9 1
    22    8    9 1
    23    9   24 1
