@<TRIPOS>MOLECULE
*****
   18    18     0     0     0
SMALL
NO_CHARGES

@<TRIPOS>ATOM
      1 C1          0.9071    1.4481    1.5795 C.1       1 <0>         0.0000
      2 C2          4.1687   -3.4955    1.8262 C.2       1 <0>         0.0000
      3 C3          4.6008   -3.3055    0.5406 C.2       1 <0>         0.0000
      4 C4          3.0195   -2.6942    2.1092 C.2       1 <0>         0.0000
      5 C5          2.5907   -1.9187    1.0620 C.2       1 <0>         0.0000
      6 C6          1.9815    0.4483    1.5468 C.3       1 <0>         0.0000
      7 C7          1.4701   -0.9178    1.0193 C.3       1 <0>         0.0000
      8 N1          0.0234    2.2048    1.5739 N.1       1 <0>         0.0000
      9 N2          1.0043   -0.7543   -0.3617 N.3       1 <0>         0.0000
     10 S1          3.6218   -2.1639   -0.3229 S.3       1 <0>         0.0000
     11 Br1         2.1780   -2.6929    3.8234 Br        1 <0>         0.0000
     12 H1          4.6293   -4.1689    2.5397 H         1 <0>         0.0000
     13 H2          5.4350   -3.7860    0.0450 H         1 <0>         0.0000
     14 H3          2.7836    0.8094    0.8964 H         1 <0>         0.0000
     15 H4          2.3836    0.3253    2.5558 H         1 <0>         0.0000
     16 H5          0.6878   -1.2632    1.7105 H         1 <0>         0.0000
     17 H6          0.2842   -0.0335   -0.4037 H         1 <0>         0.0000
     18 H7          0.5760   -1.6206   -0.6836 H         1 <0>         0.0000
@<TRIPOS>BOND
     1    1    6 1
     2    1    8 3
     3    2    3 2
     4    2    4 1
     5    2   12 1
     6    3   10 1
     7    3   13 1
     8    4    5 2
     9    4   11 1
    10    5    7 1
    11    5   10 1
    12    6    7 1
    13    6   14 1
    14    6   15 1
    15    7    9 1
    16    7   16 1
    17    9   17 1
    18    9   18 1
