@<TRIPOS>MOLECULE
*****
   22    22     0     0     0
SMALL
NO_CHARGES

@<TRIPOS>ATOM
      1 C1          2.0259   -0.7223    0.1284 C.ar      1 <0>         0.0000
      2 C2          0.8911   -0.2908    0.8214 C.ar      1 <0>         0.0000
      3 C3          1.6512   -1.4634    2.8023 C.ar      1 <0>         0.0000
      4 C4          2.9808   -1.5315    0.7577 C.ar      1 <0>         0.0000
      5 C5          0.7096   -0.6646    2.1505 C.ar      1 <0>         0.0000
      6 C6          2.7790   -1.8887    2.1048 C.ar      1 <0>         0.0000
      7 C7          4.8126   -0.2144   -1.3293 C.2       1 <0>         0.0000
      8 C8          4.3851   -1.6564   -1.1987 C.3       1 <0>         0.0000
      9 N1          4.2914    0.4578   -2.3003 N.2       1 <0>         0.0000
     10 N2          5.7727    0.2313   -0.4533 N.pl3     1 <0>         0.0000
     11 O1          4.8398    1.7765   -2.3135 O.3       1 <0>         0.0000
     12 O2          4.1139   -2.0146    0.1626 O.3       1 <0>         0.0000
     13 Cl1        -0.7120   -0.1250    3.0277 Cl        1 <0>         0.0000
     14 Cl2         3.9658   -2.8807    2.9215 Cl        1 <0>         0.0000
     15 H1          2.1640   -0.4034   -0.8975 H         1 <0>         0.0000
     16 H2          0.1589    0.3371    0.3246 H         1 <0>         0.0000
     17 H3          1.5136   -1.7526    3.8384 H         1 <0>         0.0000
     18 H4          5.2087   -2.3146   -1.4851 H         1 <0>         0.0000
     19 H5          3.5308   -1.8516   -1.8513 H         1 <0>         0.0000
     20 H6          5.8858    1.2375   -0.4121 H         1 <0>         0.0000
     21 H7          5.8051   -0.2479    0.4390 H         1 <0>         0.0000
     22 H8          4.3728    2.1883   -3.0571 H         1 <0>         0.0000
@<TRIPOS>BOND
     1    1    2 ar
     2    1    4 ar
     3    1   15 1
     4    2    5 ar
     5    2   16 1
     6    3    5 ar
     7    3    6 ar
     8    3   17 1
     9    4    6 ar
    10    4   12 1
    11    5   13 1
    12    6   14 1
    13    7    8 1
    14    7    9 2
    15    7   10 1
    16    8   12 1
    17    8   18 1
    18    8   19 1
    19    9   11 1
    20   10   20 1
    21   10   21 1
    22   11   22 1
