@<TRIPOS>MOLECULE
*****
   38    40     0     0     0
SMALL
NO_CHARGES

@<TRIPOS>ATOM
      1 C1         -5.2154    2.8179   -7.5497 C.ar      1 <0>         0.0000
      2 C2         -4.2291    2.4662   -6.6261 C.ar      1 <0>         0.0000
      3 C3         -4.9532    2.8060   -8.9218 C.ar      1 <0>         0.0000
      4 C4         -2.6794    2.0661   -8.4597 C.ar      1 <0>         0.0000
      5 C5         -0.6742    0.8382   -4.5649 C.2       1 <0>         0.0000
      6 C6         -2.9675    2.0782   -7.0896 C.ar      1 <0>         0.0000
      7 C7         -3.6787    2.4348   -9.3569 C.ar      1 <0>         0.0000
      8 C8          0.0932    1.6466   -5.4612 C.2       1 <0>         0.0000
      9 C9         -1.9656    0.9096   -5.0798 C.2       1 <0>         0.0000
     10 C10        -0.1430    0.1171   -3.4189 C.2       1 <0>         0.0000
     11 C11         0.9873   -1.5651   -1.4017 C.3       1 <0>         0.0000
     12 C12        -1.3033   -2.2773   -1.0951 C.3       1 <0>         0.0000
     13 C13         1.2499   -2.8350   -2.2178 C.3       1 <0>         0.0000
     14 C14        -0.9875   -3.5377   -1.9030 C.3       1 <0>         0.0000
     15 C15         1.5603    1.9438   -5.4001 C.3       1 <0>         0.0000
     16 N1         -0.6594    2.1634   -6.4278 N.2       1 <0>         0.0000
     17 N2         -0.9073   -0.5562   -2.6264 N.2       1 <0>         0.0000
     18 N3         -1.9317    1.7186   -6.1871 N.pl3     1 <0>         0.0000
     19 N4         -0.4273   -1.1691   -1.5014 N.pl3     1 <0>         0.0000
     20 O1          0.3943   -3.8929   -1.7825 O.3       1 <0>         0.0000
     21 Cl1        -3.3263    2.4222  -11.0771 Cl        1 <0>         0.0000
     22 Cl2        -3.3864    0.0843   -4.5712 Cl        1 <0>         0.0000
     23 H1         -6.1968    3.1205   -7.1960 H         1 <0>         0.0000
     24 H2         -4.4332    2.5089   -5.5629 H         1 <0>         0.0000
     25 H3         -5.7164    3.0861   -9.6405 H         1 <0>         0.0000
     26 H4         -1.6914    1.7814   -8.8013 H         1 <0>         0.0000
     27 H5          0.9380    0.2019   -3.2821 H         1 <0>         0.0000
     28 H6          1.1861   -1.7681   -0.3447 H         1 <0>         0.0000
     29 H7          1.6430   -0.7441   -1.6991 H         1 <0>         0.0000
     30 H8         -2.3379   -1.9637   -1.2470 H         1 <0>         0.0000
     31 H9         -1.1384   -2.4681   -0.0291 H         1 <0>         0.0000
     32 H10         1.0920   -2.6411   -3.2892 H         1 <0>         0.0000
     33 H11         2.2747   -3.1889   -2.0743 H         1 <0>         0.0000
     34 H12        -1.5563   -4.3965   -1.5362 H         1 <0>         0.0000
     35 H13        -1.2409   -3.3696   -2.9607 H         1 <0>         0.0000
     36 H14         2.1566    1.0271   -5.4707 H         1 <0>         0.0000
     37 H15         1.8360    2.5990   -6.2292 H         1 <0>         0.0000
     38 H16         1.8278    2.4416   -4.4616 H         1 <0>         0.0000
@<TRIPOS>BOND
     1    1    2 ar
     2    1    3 ar
     3    1   23 1
     4    2    6 ar
     5    2   24 1
     6    3    7 ar
     7    3   25 1
     8    4    6 ar
     9    4    7 ar
    10    4   26 1
    11    5    8 1
    12    5    9 2
    13    5   10 1
    14    6   18 1
    15    7   21 1
    16    8   15 1
    17    8   16 2
    18    9   18 1
    19    9   22 1
    20   10   17 2
    21   10   27 1
    22   11   13 1
    23   11   19 1
    24   11   28 1
    25   11   29 1
    26   12   14 1
    27   12   19 1
    28   12   30 1
    29   12   31 1
    30   13   20 1
    31   13   32 1
    32   13   33 1
    33   14   20 1
    34   14   34 1
    35   14   35 1
    36   15   36 1
    37   15   37 1
    38   15   38 1
    39   16   18 1
    40   17   19 1
