@<TRIPOS>MOLECULE
*****
   38    40     0     0     0
SMALL
NO_CHARGES

@<TRIPOS>ATOM
      1 C1         -8.1433    4.5940    3.0519 C.ar      1 <0>         0.0000
      2 C2         -6.8401    4.1331    2.8540 C.ar      1 <0>         0.0000
      3 C3         -9.0041    4.8038    1.9720 C.ar      1 <0>         0.0000
      4 C4         -7.2460    4.0677    0.4551 C.ar      1 <0>         0.0000
      5 C5         -3.1268    2.3149    1.2883 C.2       1 <0>         0.0000
      6 C6         -6.4032    3.8577    1.5536 C.ar      1 <0>         0.0000
      7 C7         -8.5349    4.5432    0.6820 C.ar      1 <0>         0.0000
      8 C8         -3.2337    3.2415    0.1993 C.2       1 <0>         0.0000
      9 C9         -4.3386    2.4478    1.9542 C.2       1 <0>         0.0000
     10 C10        -2.0447    1.4163    1.6516 C.2       1 <0>         0.0000
     11 C11         1.3411    1.0243    0.8335 C.3       1 <0>         0.0000
     12 C12         0.0705   -0.1782    2.5441 C.3       1 <0>         0.0000
     13 C13         2.4058   -0.0610    0.9213 C.3       1 <0>         0.0000
     14 C14         1.2137   -1.1936    2.5798 C.3       1 <0>         0.0000
     15 C15        -2.2237    3.5425   -0.8606 C.3       1 <0>         0.0000
     16 N1         -4.4049    3.8706    0.2136 N.2       1 <0>         0.0000
     17 N2         -0.9586    1.3800    0.9527 N.2       1 <0>         0.0000
     18 N3         -5.0867    3.3910    1.3030 N.pl3     1 <0>         0.0000
     19 N4          0.0387    0.4865    1.2410 N.pl3     1 <0>         0.0000
     20 O1          2.4658   -0.6141    2.2357 O.3       1 <0>         0.0000
     21 Cl1        -9.5969    4.8125   -0.6898 Cl        1 <0>         0.0000
     22 Cl2        -4.9114    1.5364    3.3063 Cl        1 <0>         0.0000
     23 H1         -8.4877    4.8095    4.0593 H         1 <0>         0.0000
     24 H2         -6.1706    4.0085    3.6967 H         1 <0>         0.0000
     25 H3        -10.0141    5.1703    2.1233 H         1 <0>         0.0000
     26 H4         -6.8859    3.8689   -0.5471 H         1 <0>         0.0000
     27 H5         -2.2217    0.7857    2.5248 H         1 <0>         0.0000
     28 H6          1.6266    1.8714    1.4779 H         1 <0>         0.0000
     29 H7          1.2451    1.3910   -0.1915 H         1 <0>         0.0000
     30 H8         -0.8650   -0.7239    2.7024 H         1 <0>         0.0000
     31 H9          0.1795    0.5609    3.3566 H         1 <0>         0.0000
     32 H10         2.1939   -0.8572    0.1914 H         1 <0>         0.0000
     33 H11         3.3937    0.3566    0.7123 H         1 <0>         0.0000
     34 H12         1.3210   -1.5976    3.5895 H         1 <0>         0.0000
     35 H13         0.9841   -2.0215    1.8914 H         1 <0>         0.0000
     36 H14        -1.9528    2.6340   -1.4062 H         1 <0>         0.0000
     37 H15        -2.6309    4.2816   -1.5547 H         1 <0>         0.0000
     38 H16        -1.2999    3.9272   -0.4184 H         1 <0>         0.0000
@<TRIPOS>BOND
     1    1    2 ar
     2    1    3 ar
     3    1   23 1
     4    2    6 ar
     5    2   24 1
     6    3    7 ar
     7    3   25 1
     8    4    6 ar
     9    4    7 ar
    10    4   26 1
    11    5    8 1
    12    5    9 2
    13    5   10 1
    14    6   18 1
    15    7   21 1
    16    8   15 1
    17    8   16 2
    18    9   18 1
    19    9   22 1
    20   10   17 2
    21   10   27 1
    22   11   13 1
    23   11   19 1
    24   11   28 1
    25   11   29 1
    26   12   14 1
    27   12   19 1
    28   12   30 1
    29   12   31 1
    30   13   20 1
    31   13   32 1
    32   13   33 1
    33   14   20 1
    34   14   34 1
    35   14   35 1
    36   15   36 1
    37   15   37 1
    38   15   38 1
    39   16   18 1
    40   17   19 1
