@<TRIPOS>MOLECULE
*****
   33    34     0     0     0
SMALL
NO_CHARGES

@<TRIPOS>ATOM
      1 C1          1.3450    2.0517   -3.0836 C.2       1 <0>         0.0000
      2 C2          2.4833    2.1414   -2.3253 C.2       1 <0>         0.0000
      3 C3          0.5061    1.2984   -1.1726 C.2       1 <0>         0.0000
      4 C4         -0.3092    0.4758    1.0106 C.2       1 <0>         0.0000
      5 C5         -2.6710    1.0159    1.8090 C.3       1 <0>         0.0000
      6 C6         -2.1028   -1.3443    1.1031 C.3       1 <0>         0.0000
      7 C7         -3.8771    0.4450    2.5759 C.3       1 <0>         0.0000
      8 C8         -3.3296   -1.8262    1.8977 C.3       1 <0>         0.0000
      9 C9         -1.5520   -0.0420    1.7186 C.3       1 <0>         0.0000
     10 C10         1.1849    2.4114   -4.5331 C.3       1 <0>         0.0000
     11 C11         3.8615    2.6060   -2.6968 C.3       1 <0>         0.0000
     12 N1          0.2249    1.5703   -2.4160 N.2       1 <0>         0.0000
     13 N2         -4.3884   -0.8204    2.0376 N.3       1 <0>         0.0000
     14 N3         -0.4743    0.8024   -0.3189 N.am      1 <0>         0.0000
     15 O1          0.7769    0.6051    1.5708 O.2       1 <0>         0.0000
     16 S1          2.1559    1.5979   -0.6838 S.3       1 <0>         0.0000
     17 H1         -2.9959    1.3140    0.8025 H         1 <0>         0.0000
     18 H2         -2.2969    1.9195    2.3042 H         1 <0>         0.0000
     19 H3         -1.3254   -2.1172    1.0952 H         1 <0>         0.0000
     20 H4         -2.3992   -1.1788    0.0580 H         1 <0>         0.0000
     21 H5         -3.5888    0.2694    3.6205 H         1 <0>         0.0000
     22 H6         -4.6958    1.1717    2.5918 H         1 <0>         0.0000
     23 H7         -3.7581   -2.7190    1.4308 H         1 <0>         0.0000
     24 H8         -3.0125   -2.1177    2.9075 H         1 <0>         0.0000
     25 H9         -1.2076   -0.2624    2.7342 H         1 <0>         0.0000
     26 H10         0.8655    1.5366   -5.1098 H         1 <0>         0.0000
     27 H11         0.4125    3.1788   -4.6518 H         1 <0>         0.0000
     28 H12         2.1126    2.7882   -4.9681 H         1 <0>         0.0000
     29 H13         4.1828    3.4532   -2.0803 H         1 <0>         0.0000
     30 H14         4.6040    1.8092   -2.5747 H         1 <0>         0.0000
     31 H15         3.8900    2.9274   -3.7404 H         1 <0>         0.0000
     32 H16        -4.8087   -0.6492    1.1248 H         1 <0>         0.0000
     33 H17        -1.3782    0.6876   -0.7627 H         1 <0>         0.0000
@<TRIPOS>BOND
     1    1    2 2
     2    1   10 1
     3    1   12 1
     4    2   11 1
     5    2   16 1
     6    3   12 2
     7    3   14 1
     8    3   16 1
     9    4    9 1
    10    4   14 am
    11    4   15 2
    12    5    7 1
    13    5    9 1
    14    5   17 1
    15    5   18 1
    16    6    8 1
    17    6    9 1
    18    6   19 1
    19    6   20 1
    20    7   13 1
    21    7   21 1
    22    7   22 1
    23    8   13 1
    24    8   23 1
    25    8   24 1
    26    9   25 1
    27   10   26 1
    28   10   27 1
    29   10   28 1
    30   11   29 1
    31   11   30 1
    32   11   31 1
    33   13   32 1
    34   14   33 1
