@<TRIPOS>MOLECULE
*****
   20    20     0     0     0
SMALL
NO_CHARGES

@<TRIPOS>ATOM
      1 C1          2.0888   -1.1190   -0.0457 C.ar      1 <0>         0.0000
      2 C2          1.0665   -0.4995    0.6716 C.ar      1 <0>         0.0000
      3 C3          3.0643   -1.8571    0.6165 C.ar      1 <0>         0.0000
      4 C4          1.0023   -0.6340    2.0678 C.ar      1 <0>         0.0000
      5 C5          3.0447   -1.9948    2.0171 C.ar      1 <0>         0.0000
      6 C6          1.9923   -1.3810    2.7314 C.ar      1 <0>         0.0000
      7 C7         -0.1571   -0.0223    2.7907 C.2       1 <0>         0.0000
      8 C8         -1.7864    1.6845    2.7235 C.3       1 <0>         0.0000
      9 N1          4.0778   -2.6673    2.6679 N.pl3     1 <0>         0.0000
     10 O1         -0.6554   -0.4350    3.8197 O.2       1 <0>         0.0000
     11 O2         -0.6274    1.0671    2.1289 O.3       1 <0>         0.0000
     12 Cl1         2.0112   -1.5522    4.4789 Cl        1 <0>         0.0000
     13 H1          2.1281   -1.0244   -1.1272 H         1 <0>         0.0000
     14 H2          0.3063    0.0824    0.1650 H         1 <0>         0.0000
     15 H3          3.8696   -2.3275    0.0564 H         1 <0>         0.0000
     16 H4         -2.0306    2.5260    2.0751 H         1 <0>         0.0000
     17 H5         -1.5572    2.0301    3.7342 H         1 <0>         0.0000
     18 H6         -2.6171    0.9760    2.7673 H         1 <0>         0.0000
     19 H7          4.5423   -3.3700    2.1060 H         1 <0>         0.0000
     20 H8          3.8590   -2.9957    3.6010 H         1 <0>         0.0000
@<TRIPOS>BOND
     1    1    2 ar
     2    1    3 ar
     3    1   13 1
     4    2    4 ar
     5    2   14 1
     6    3    5 ar
     7    3   15 1
     8    4    6 ar
     9    4    7 1
    10    5    6 ar
    11    5    9 1
    12    6   12 1
    13    7   10 2
    14    7   11 1
    15    8   11 1
    16    8   16 1
    17    8   17 1
    18    8   18 1
    19    9   19 1
    20    9   20 1
