@<TRIPOS>MOLECULE
*****
   38    40     0     0     0
SMALL
NO_CHARGES

@<TRIPOS>ATOM
      1 C1         -8.8629    3.3718    0.2105 C.ar      1 <0>         0.0000
      2 C2         -7.5451    2.9134    0.1533 C.ar      1 <0>         0.0000
      3 C3         -9.1867    4.5486    0.8897 C.ar      1 <0>         0.0000
      4 C4         -6.8413    4.8230    1.4881 C.ar      1 <0>         0.0000
      5 C5         -3.2603    2.0819    0.8636 C.2       1 <0>         0.0000
      6 C6         -6.5415    3.6363    0.8075 C.ar      1 <0>         0.0000
      7 C7         -8.1619    5.2638    1.5144 C.ar      1 <0>         0.0000
      8 C8         -3.0454    3.4884    0.6868 C.2       1 <0>         0.0000
      9 C9         -4.6433    1.9643    0.9196 C.2       1 <0>         0.0000
     10 C10        -2.3038    0.9945    0.9768 C.2       1 <0>         0.0000
     11 C11        -0.5421   -1.1746    0.9816 C.3       1 <0>         0.0000
     12 C12         1.1127    0.5163    0.3545 C.3       1 <0>         0.0000
     13 C13         0.6310   -2.0983    1.3133 C.3       1 <0>         0.0000
     14 C14         2.2053   -0.4677    0.7505 C.3       1 <0>         0.0000
     15 C15        -1.7462    4.2153    0.5527 C.3       1 <0>         0.0000
     16 N1         -4.1971    4.1512    0.6422 N.2       1 <0>         0.0000
     17 N2         -1.0344    1.2275    0.9140 N.2       1 <0>         0.0000
     18 N3         -5.1879    3.2117    0.7743 N.pl3     1 <0>         0.0000
     19 N4         -0.1212    0.2223    1.0912 N.pl3     1 <0>         0.0000
     20 O1          1.7848   -1.8140    0.5323 O.3       1 <0>         0.0000
     21 Cl1        -8.5456    6.7522    2.3626 Cl        1 <0>         0.0000
     22 Cl2        -5.5749    0.5413    1.2262 Cl        1 <0>         0.0000
     23 H1         -9.6459    2.8145   -0.2957 H         1 <0>         0.0000
     24 H2         -7.3018    2.0187   -0.4071 H         1 <0>         0.0000
     25 H3        -10.2088    4.9109    0.9276 H         1 <0>         0.0000
     26 H4         -6.0497    5.3821    1.9723 H         1 <0>         0.0000
     27 H5         -2.7281    0.0002    1.1274 H         1 <0>         0.0000
     28 H6         -0.9326   -1.3866   -0.0289 H         1 <0>         0.0000
     29 H7         -1.3390   -1.3765    1.7043 H         1 <0>         0.0000
     30 H8          1.4085    1.5408    0.5939 H         1 <0>         0.0000
     31 H9          0.9375    0.4524   -0.7316 H         1 <0>         0.0000
     32 H10         0.8730   -2.0067    2.3833 H         1 <0>         0.0000
     33 H11         0.3578   -3.1355    1.1039 H         1 <0>         0.0000
     34 H12         3.0966   -0.3148    0.1372 H         1 <0>         0.0000
     35 H13         2.4732   -0.3279    1.8091 H         1 <0>         0.0000
     36 H14        -1.1893    3.8572   -0.3182 H         1 <0>         0.0000
     37 H15        -1.9352    5.2864    0.4495 H         1 <0>         0.0000
     38 H16        -1.1103    4.0353    1.4243 H         1 <0>         0.0000
@<TRIPOS>BOND
     1    1    2 ar
     2    1    3 ar
     3    1   23 1
     4    2    6 ar
     5    2   24 1
     6    3    7 ar
     7    3   25 1
     8    4    6 ar
     9    4    7 ar
    10    4   26 1
    11    5    8 1
    12    5    9 2
    13    5   10 1
    14    6   18 1
    15    7   21 1
    16    8   15 1
    17    8   16 2
    18    9   18 1
    19    9   22 1
    20   10   17 2
    21   10   27 1
    22   11   13 1
    23   11   19 1
    24   11   28 1
    25   11   29 1
    26   12   14 1
    27   12   19 1
    28   12   30 1
    29   12   31 1
    30   13   20 1
    31   13   32 1
    32   13   33 1
    33   14   20 1
    34   14   34 1
    35   14   35 1
    36   15   36 1
    37   15   37 1
    38   15   38 1
    39   16   18 1
    40   17   19 1
