@<TRIPOS>MOLECULE
*****
   20    21     0     0     0
SMALL
NO_CHARGES

@<TRIPOS>ATOM
      1 C1          1.7786   -0.9948   -0.1784 C.ar      1 <0>         0.0000
      2 C2          1.0109   -0.1759    0.6507 C.ar      1 <0>         0.0000
      3 C3          2.8035   -2.0132    1.7815 C.ar      1 <0>         0.0000
      4 C4          2.5436    1.1690    6.7360 C.2       1 <0>         0.0000
      5 C5          3.0348    2.0775    5.8258 C.2       1 <0>         0.0000
      6 C6          2.0595   -1.1701    2.6220 C.ar      1 <0>         0.0000
      7 C7          2.6612   -1.9013    0.4066 C.ar      1 <0>         0.0000
      8 C8          1.1638   -0.2740    2.0302 C.ar      1 <0>         0.0000
      9 C9          2.4147   -0.1028    4.9357 C.2       1 <0>         0.0000
     10 C10         2.2230   -1.3295    4.1091 C.2       1 <0>         0.0000
     11 N1          2.2093   -0.0547    6.2284 N.2       1 <0>         0.0000
     12 O1          2.2664   -2.4409    4.6119 O.2       1 <0>         0.0000
     13 F1          3.4003   -2.7030   -0.3984 F         1 <0>         0.0000
     14 F2          0.3784    0.5029    2.8165 F         1 <0>         0.0000
     15 S1          3.0645    1.3827    4.2523 S.3       1 <0>         0.0000
     16 H1          1.6926   -0.9444   -1.2592 H         1 <0>         0.0000
     17 H2          0.2915    0.5271    0.2431 H         1 <0>         0.0000
     18 H3          3.4833   -2.7430    2.2093 H         1 <0>         0.0000
     19 H4          2.4144    1.3625    7.7955 H         1 <0>         0.0000
     20 H5          3.3757    3.0894    6.0038 H         1 <0>         0.0000
@<TRIPOS>BOND
     1    1    2 ar
     2    1    7 ar
     3    1   16 1
     4    2    8 ar
     5    2   17 1
     6    3    6 ar
     7    3    7 ar
     8    3   18 1
     9    4    5 2
    10    4   11 1
    11    4   19 1
    12    5   15 1
    13    5   20 1
    14    6    8 ar
    15    6   10 1
    16    7   13 1
    17    8   14 1
    18    9   10 1
    19    9   11 2
    20    9   15 1
    21   10   12 2
