@<TRIPOS>MOLECULE
*****
   29    30     0     0     0
SMALL
NO_CHARGES

@<TRIPOS>ATOM
      1 C1          0.1248    1.9445    1.2969 C.ar      1 <0>         0.0000
      2 C2         -2.5503    2.5844    1.7162 C.ar      1 <0>         0.0000
      3 C3         -0.8601    1.0227    0.9115 C.ar      1 <0>         0.0000
      4 C4         -0.2036    3.1631    1.8952 C.ar      1 <0>         0.0000
      5 C5         -1.5631    3.4878    2.1041 C.ar      1 <0>         0.0000
      6 C6         -2.1947    1.3670    1.1325 C.ar      1 <0>         0.0000
      7 C7         -0.5064   -0.3814   -1.2914 C.3       1 <0>         0.0000
      8 C8          0.8705   -1.0792   -1.1852 C.3       1 <0>         0.0000
      9 C9         -0.4548   -0.2767    0.2620 C.3       1 <0>         0.0000
     10 C10         2.0930    3.7754    2.1438 C.3       1 <0>         0.0000
     11 C11        -1.7043    5.8543    1.9897 C.3       1 <0>         0.0000
     12 N1          1.0087   -0.5448    0.2009 N.3       1 <0>         0.0000
     13 O1          0.7128    4.0889    2.3138 O.3       1 <0>         0.0000
     14 O2         -1.9439    4.6497    2.7337 O.3       1 <0>         0.0000
     15 Br1        -3.6128    0.1680    0.6085 Br        1 <0>         0.0000
     16 H1          1.1529    1.6572    1.1108 H         1 <0>         0.0000
     17 H2         -3.5885    2.8480    1.8875 H         1 <0>         0.0000
     18 H3         -0.4522    0.6001   -1.7671 H         1 <0>         0.0000
     19 H4         -1.3345   -0.9514   -1.7139 H         1 <0>         0.0000
     20 H5          0.7857   -2.1733   -1.2332 H         1 <0>         0.0000
     21 H6          1.6601   -0.7516   -1.8692 H         1 <0>         0.0000
     22 H7         -1.0216   -1.1013    0.7140 H         1 <0>         0.0000
     23 H8          2.6426    4.6257    2.5498 H         1 <0>         0.0000
     24 H9          2.3468    3.6473    1.0846 H         1 <0>         0.0000
     25 H10         2.3650    2.8677    2.6953 H         1 <0>         0.0000
     26 H11        -2.0923    6.6694    2.6038 H         1 <0>         0.0000
     27 H12        -2.2434    5.8271    1.0343 H         1 <0>         0.0000
     28 H13        -0.6360    6.0035    1.8097 H         1 <0>         0.0000
     29 H14         1.3369   -1.2189    0.8899 H         1 <0>         0.0000
@<TRIPOS>BOND
     1    1    3 ar
     2    1    4 ar
     3    1   16 1
     4    2    5 ar
     5    2    6 ar
     6    2   17 1
     7    3    6 ar
     8    3    9 1
     9    4    5 ar
    10    4   13 1
    11    5   14 1
    12    6   15 1
    13    7    8 1
    14    7    9 1
    15    7   18 1
    16    7   19 1
    17    8   12 1
    18    8   20 1
    19    8   21 1
    20    9   12 1
    21    9   22 1
    22   10   13 1
    23   10   23 1
    24   10   24 1
    25   10   25 1
    26   11   14 1
    27   11   26 1
    28   11   27 1
    29   11   28 1
    30   12   29 1
