@<TRIPOS>MOLECULE
*****
   21    22     0     0     0
SMALL
NO_CHARGES

@<TRIPOS>ATOM
      1 C1          1.7985   -1.2394    0.1553 C.ar      1 <0>         0.0000
      2 C2          0.7159   -0.5870    0.7365 C.ar      1 <0>         0.0000
      3 C3          1.7339   -0.9003    2.9251 C.ar      1 <0>         0.0000
      4 C4          2.8803   -1.7203    0.9155 C.ar      1 <0>         0.0000
      5 C5          2.8038   -1.5358    2.3011 C.ar      1 <0>         0.0000
      6 C6          0.6972   -0.4229    2.1254 C.ar      1 <0>         0.0000
      7 C7          3.9971   -2.4051    0.1757 C.2       1 <0>         0.0000
      8 C8          6.5328   -2.5480   -0.2065 C.3       1 <0>         0.0000
      9 C9          6.1473   -3.7552    0.5821 C.3       1 <0>         0.0000
     10 C10         5.3601   -2.4527    0.7667 C.3       1 <0>         0.0000
     11 O1          3.7657   -2.8862   -0.9322 O.2       1 <0>         0.0000
     12 F1          3.7801   -2.0134    3.1135 F         1 <0>         0.0000
     13 Br1        -0.7805    0.4634    2.9522 Br        1 <0>         0.0000
     14 H1          1.8347   -1.3952   -0.9182 H         1 <0>         0.0000
     15 H2         -0.1005   -0.2145    0.1273 H         1 <0>         0.0000
     16 H3          1.7244   -0.7984    4.0046 H         1 <0>         0.0000
     17 H4          7.4312   -2.0059    0.0720 H         1 <0>         0.0000
     18 H5          6.2720   -2.5336   -1.2594 H         1 <0>         0.0000
     19 H6          5.6232   -4.5486    0.0592 H         1 <0>         0.0000
     20 H7          6.7690   -4.0654    1.4160 H         1 <0>         0.0000
     21 H8          5.5253   -1.9133    1.6892 H         1 <0>         0.0000
@<TRIPOS>BOND
     1    1    2 ar
     2    1    4 ar
     3    1   14 1
     4    2    6 ar
     5    2   15 1
     6    3    5 ar
     7    3    6 ar
     8    3   16 1
     9    4    5 ar
    10    4    7 1
    11    5   12 1
    12    6   13 1
    13    7   10 1
    14    7   11 2
    15    8    9 1
    16    8   10 1
    17    8   17 1
    18    8   18 1
    19    9   10 1
    20    9   19 1
    21    9   20 1
    22   10   21 1
