@<TRIPOS>MOLECULE
*****
   28    30     0     0     0
SMALL
NO_CHARGES

@<TRIPOS>ATOM
      1 C1          0.1067   -3.4539   -2.0726 C.ar      1 <0>         0.0000
      2 C2          0.9811    1.4393    3.0139 C.ar      1 <0>         0.0000
      3 C3          1.2262    0.7398    1.8150 C.ar      1 <0>         0.0000
      4 C4          0.4589   -4.0431   -3.2811 C.ar      1 <0>         0.0000
      5 C5         -1.1763    0.3867    1.4501 C.ar      1 <0>         0.0000
      6 C6          1.6957   -2.0322   -3.8695 C.ar      1 <0>         0.0000
      7 C7          0.5252   -2.1571   -1.7226 C.ar      1 <0>         0.0000
      8 C8         -0.3383    1.5837    3.3971 C.ar      1 <0>         0.0000
      9 C9         -1.3870    1.0699    2.6318 C.ar      1 <0>         0.0000
     10 C10         0.1682    0.2324    1.0680 C.ar      1 <0>         0.0000
     11 C11         1.3251   -1.4707   -2.6499 C.ar      1 <0>         0.0000
     12 C12         1.2558   -3.3190   -4.1742 C.ar      1 <0>         0.0000
     13 C13         0.0765   -1.6473   -0.3940 C.2       1 <0>         0.0000
     14 C14        -2.2485    1.9207    4.5132 C.3       1 <0>         0.0000
     15 O1         -0.5965   -2.3025    0.3764 O.2       1 <0>         0.0000
     16 O2         -0.8489    2.2441    4.4962 O.3       1 <0>         0.0000
     17 O3         -2.5907    1.3868    3.2226 O.3       1 <0>         0.0000
     18 O4          0.4996   -0.3780   -0.1519 O.3       1 <0>         0.0000
     19 F1          1.7784   -0.2278   -2.4021 F         1 <0>         0.0000
     20 Cl1         1.7130   -4.0354   -5.7019 Cl        1 <0>         0.0000
     21 H1         -0.5098   -3.9902   -1.3587 H         1 <0>         0.0000
     22 H2          1.7924    1.8481    3.6070 H         1 <0>         0.0000
     23 H3          2.2400    0.5935    1.4576 H         1 <0>         0.0000
     24 H4          0.1252   -5.0440   -3.5322 H         1 <0>         0.0000
     25 H5         -1.9919   -0.0159    0.8622 H         1 <0>         0.0000
     26 H6          2.3149   -1.4629   -4.5540 H         1 <0>         0.0000
     27 H7         -2.4368    1.1585    5.2815 H         1 <0>         0.0000
     28 H8         -2.8278    2.8285    4.6932 H         1 <0>         0.0000
@<TRIPOS>BOND
     1    1    4 ar
     2    1    7 ar
     3    1   21 1
     4    2    3 ar
     5    2    8 ar
     6    2   22 1
     7    3   10 ar
     8    3   23 1
     9    4   12 ar
    10    4   24 1
    11    5    9 ar
    12    5   10 ar
    13    5   25 1
    14    6   11 ar
    15    6   12 ar
    16    6   26 1
    17    7   11 ar
    18    7   13 1
    19    8    9 ar
    20    8   16 1
    21    9   17 1
    22   10   18 1
    23   11   19 1
    24   12   20 1
    25   13   15 2
    26   13   18 1
    27   14   16 1
    28   14   17 1
    29   14   27 1
    30   14   28 1
