@<TRIPOS>MOLECULE
*****
   18    19     0     0     0
SMALL
NO_CHARGES

@<TRIPOS>ATOM
      1 C1          1.3329   -0.4327   -2.9608 C.ar      1 <0>         0.0000
      2 C2          1.0123    0.0646   -1.7019 C.ar      1 <0>         0.0000
      3 C3         -0.8489   -1.5194   -1.4871 C.ar      1 <0>         0.0000
      4 C4          0.5646   -1.4762   -3.4975 C.ar      1 <0>         0.0000
      5 C5         -0.0679   -0.4808   -0.9930 C.ar      1 <0>         0.0000
      6 C6         -0.5184   -2.0094   -2.7530 C.ar      1 <0>         0.0000
      7 C7         -0.0895   -2.9959   -4.9427 C.2       1 <0>         0.0000
      8 C8         -1.2208    1.0184    0.4155 C.3       1 <0>         0.0000
      9 N1          0.7751   -2.0668   -4.7404 N.2       1 <0>         0.0000
     10 O1         -0.3298   -0.0005    0.3066 O.3       1 <0>         0.0000
     11 F1         -0.8406    2.1193   -0.2729 F         1 <0>         0.0000
     12 F2         -1.3162    1.3398    1.7100 F         1 <0>         0.0000
     13 F3         -2.4531    0.6825   -0.0338 F         1 <0>         0.0000
     14 S1         -1.2803   -3.2953   -3.6697 S.3       1 <0>         0.0000
     15 Br1        -0.1526   -4.0451   -6.5160 Br        1 <0>         0.0000
     16 H1          2.1636   -0.0314   -3.5325 H         1 <0>         0.0000
     17 H2          1.5859    0.8688   -1.2533 H         1 <0>         0.0000
     18 H3         -1.6693   -1.9155   -0.8984 H         1 <0>         0.0000
@<TRIPOS>BOND
     1    1    2 ar
     2    1    4 ar
     3    1   16 1
     4    2    5 ar
     5    2   17 1
     6    3    5 ar
     7    3    6 ar
     8    3   18 1
     9    4    6 ar
    10    4    9 1
    11    5   10 1
    12    6   14 1
    13    7    9 2
    14    7   14 1
    15    7   15 1
    16    8   10 1
    17    8   11 1
    18    8   12 1
    19    8   13 1
