@<TRIPOS>MOLECULE
*****
   20    21     0     0     0
SMALL
NO_CHARGES

@<TRIPOS>ATOM
      1 C1          1.8864   -1.0844   -0.3822 C.ar      1 <0>         0.0000
      2 C2          0.7835   -0.5261    0.2669 C.ar      1 <0>         0.0000
      3 C3          2.7792   -1.7989    1.7674 C.ar      1 <0>         0.0000
      4 C4          4.7318   -0.9955    5.5251 C.2       1 <0>         0.0000
      5 C5          4.1334   -1.2993    6.7270 C.2       1 <0>         0.0000
      6 C6          1.6634   -1.2579    2.4289 C.ar      1 <0>         0.0000
      7 C7          2.8622   -1.7129    0.3856 C.ar      1 <0>         0.0000
      8 C8          0.6807   -0.6257    1.6505 C.ar      1 <0>         0.0000
      9 C9          2.6723   -1.3183    4.7911 C.2       1 <0>         0.0000
     10 C10         1.4792   -1.4067    3.9055 C.2       1 <0>         0.0000
     11 N1          3.8987   -1.0085    4.4399 N.2       1 <0>         0.0000
     12 O1          0.3774   -1.6012    4.4070 O.2       1 <0>         0.0000
     13 F1          3.9364   -2.2583   -0.2401 F         1 <0>         0.0000
     14 F2         -0.3874   -0.0553    2.2430 F         1 <0>         0.0000
     15 S1          2.4555   -1.6145    6.5062 S.3       1 <0>         0.0000
     16 H1          1.9940   -1.0333   -1.4611 H         1 <0>         0.0000
     17 H2          0.0014   -0.0154   -0.2856 H         1 <0>         0.0000
     18 H3          3.5723   -2.2841    2.3221 H         1 <0>         0.0000
     19 H4          5.7808   -0.7539    5.3931 H         1 <0>         0.0000
     20 H5          4.5940   -1.3468    7.7056 H         1 <0>         0.0000
@<TRIPOS>BOND
     1    1    2 ar
     2    1    7 ar
     3    1   16 1
     4    2    8 ar
     5    2   17 1
     6    3    6 ar
     7    3    7 ar
     8    3   18 1
     9    4    5 2
    10    4   11 1
    11    4   19 1
    12    5   15 1
    13    5   20 1
    14    6    8 ar
    15    6   10 1
    16    7   13 1
    17    8   14 1
    18    9   10 1
    19    9   11 2
    20    9   15 1
    21   10   12 2
