@<TRIPOS>MOLECULE
*****
   20    21     0     0     0
SMALL
NO_CHARGES

@<TRIPOS>ATOM
      1 C1          1.7745   -1.0421    0.1521 C.ar      1 <0>         0.0000
      2 C2          0.7272   -0.2474    0.6222 C.ar      1 <0>         0.0000
      3 C3          2.5129   -1.4119    2.4411 C.ar      1 <0>         0.0000
      4 C4         -2.1203   -1.2021    5.3084 C.2       1 <0>         0.0000
      5 C5         -1.8724   -0.7192    6.5743 C.2       1 <0>         0.0000
      6 C6          1.4414   -0.6434    2.9221 C.ar      1 <0>         0.0000
      7 C7          2.6515   -1.6071    1.0751 C.ar      1 <0>         0.0000
      8 C8          0.5737   -0.0614    1.9922 C.ar      1 <0>         0.0000
      9 C9         -0.0100   -0.6223    5.0274 C.2       1 <0>         0.0000
     10 C10         1.3244   -0.4630    4.4043 C.2       1 <0>         0.0000
     11 N1         -1.0635   -1.1420    4.4437 N.2       1 <0>         0.0000
     12 O1          2.3136   -0.2514    5.0985 O.2       1 <0>         0.0000
     13 F1          3.6768   -2.3702    0.6199 F         1 <0>         0.0000
     14 F2         -0.4116    0.7636    2.4138 F         1 <0>         0.0000
     15 S1         -0.2441   -0.1754    6.7057 S.3       1 <0>         0.0000
     16 H1          1.9203   -1.2153   -0.9094 H         1 <0>         0.0000
     17 H2          0.0350    0.2358   -0.0599 H         1 <0>         0.0000
     18 H3          3.2196   -1.8534    3.1362 H         1 <0>         0.0000
     19 H4         -3.0669   -1.6109    4.9721 H         1 <0>         0.0000
     20 H5         -2.5572   -0.6601    7.4108 H         1 <0>         0.0000
@<TRIPOS>BOND
     1    1    2 ar
     2    1    7 ar
     3    1   16 1
     4    2    8 ar
     5    2   17 1
     6    3    6 ar
     7    3    7 ar
     8    3   18 1
     9    4    5 2
    10    4   11 1
    11    4   19 1
    12    5   15 1
    13    5   20 1
    14    6    8 ar
    15    6   10 1
    16    7   13 1
    17    8   14 1
    18    9   10 1
    19    9   11 2
    20    9   15 1
    21   10   12 2
