@<TRIPOS>MOLECULE
*****
   32    34     0     0     0
SMALL
NO_CHARGES

@<TRIPOS>ATOM
      1 C1          7.9731   -2.8105    1.8888 C.1       1 <0>         0.0000
      2 C2          0.4271   -1.2909    1.6016 C.ar      1 <0>         0.0000
      3 C3          0.5983   -0.5122    0.4531 C.ar      1 <0>         0.0000
      4 C4          1.5037   -2.0230    2.0942 C.ar      1 <0>         0.0000
      5 C5          1.8386   -0.4815   -0.1869 C.ar      1 <0>         0.0000
      6 C6          6.3203   -5.8329    5.2025 C.2       1 <0>         0.0000
      7 C7          6.4574   -6.7744    6.1804 C.2       1 <0>         0.0000
      8 C8          8.6343   -6.1565    5.1947 C.2       1 <0>         0.0000
      9 C9          2.7569   -1.9896    1.4539 C.ar      1 <0>         0.0000
     10 C10         7.5827   -5.4553    4.6096 C.2       1 <0>         0.0000
     11 C11         2.9407   -1.2098    0.2873 C.ar      1 <0>         0.0000
     12 C12         3.8400   -2.7962    2.0418 C.2       1 <0>         0.0000
     13 C13         5.7589   -3.4713    2.6064 C.2       1 <0>         0.0000
     14 C14         7.9111   -4.4939    3.5784 C.2       1 <0>         0.0000
     15 C15         7.1976   -3.6573    2.7602 C.2       1 <0>         0.0000
     16 C16         4.2449   -1.1384   -0.4737 C.3       1 <0>         0.0000
     17 N1          8.6348   -2.1459    1.1975 N.1       1 <0>         0.0000
     18 N2          5.1892   -2.5402    1.8864 N.2       1 <0>         0.0000
     19 N3          3.5858   -3.8417    2.8114 N.2       1 <0>         0.0000
     20 O1          4.8664   -4.2936    3.1933 O.3       1 <0>         0.0000
     21 S1          8.1166   -7.2410    6.4156 S.3       1 <0>         0.0000
     22 H1         -0.5324   -1.3228    2.1104 H         1 <0>         0.0000
     23 H2         -0.2301    0.0690    0.0559 H         1 <0>         0.0000
     24 H3          1.3898   -2.6260    2.9895 H         1 <0>         0.0000
     25 H4          1.9600    0.1210   -1.0838 H         1 <0>         0.0000
     26 H5          5.3646   -5.4258    4.9127 H         1 <0>         0.0000
     27 H6          5.6786   -7.2280    6.7800 H         1 <0>         0.0000
     28 H7          9.6865   -6.0710    4.9519 H         1 <0>         0.0000
     29 H8          8.9845   -4.4080    3.4260 H         1 <0>         0.0000
     30 H9          5.0196   -0.6270    0.1026 H         1 <0>         0.0000
     31 H10         4.6392   -2.1328   -0.6999 H         1 <0>         0.0000
     32 H11         4.0999   -0.6038   -1.4160 H         1 <0>         0.0000
@<TRIPOS>BOND
     1    1   15 1
     2    1   17 3
     3    2    3 ar
     4    2    4 ar
     5    2   22 1
     6    3    5 ar
     7    3   23 1
     8    4    9 ar
     9    4   24 1
    10    5   11 ar
    11    5   25 1
    12    6    7 2
    13    6   10 1
    14    6   26 1
    15    7   21 1
    16    7   27 1
    17    8   10 2
    18    8   21 1
    19    8   28 1
    20    9   11 ar
    21    9   12 1
    22   10   14 1
    23   11   16 1
    24   12   18 1
    25   12   19 2
    26   13   15 1
    27   13   18 2
    28   13   20 1
    29   14   15 2
    30   14   29 1
    31   16   30 1
    32   16   31 1
    33   16   32 1
    34   19   20 1
