@<TRIPOS>MOLECULE
*****
   28    29     0     0     0
SMALL
NO_CHARGES

@<TRIPOS>ATOM
      1 C1          1.7459    0.3980   -3.2142 C.2       1 <0>         0.0000
      2 C2          1.4544   -0.1866   -4.4985 C.2       1 <0>         0.0000
      3 C3          0.7945   -0.0612   -2.3510 C.2       1 <0>         0.0000
      4 C4          0.3421   -0.9623   -4.3369 C.2       1 <0>         0.0000
      5 C5         -1.0971    0.9896    0.7009 C.3       1 <0>         0.0000
      6 C6          0.0244    1.7881    1.3577 C.3       1 <0>         0.0000
      7 C7          1.5859    0.9692   -0.2097 C.3       1 <0>         0.0000
      8 C8          0.4998    0.1406   -0.9024 C.3       1 <0>         0.0000
      9 C9         -1.9168   -1.2852   -5.4355 C.3       1 <0>         0.0000
     10 C10        -0.4767   -1.8008   -5.2603 C.3       1 <0>         0.0000
     11 N1         -0.7875    0.8419   -0.7257 N.3       1 <0>         0.0000
     12 O1         -0.0708   -0.8973   -3.0242 O.3       1 <0>         0.0000
     13 O2          1.2880    1.1459    1.1726 O.3       1 <0>         0.0000
     14 H1          2.5557    1.0741   -2.9744 H         1 <0>         0.0000
     15 H2          2.0013   -0.0461   -5.4219 H         1 <0>         0.0000
     16 H3         -1.1934    0.0193    1.2202 H         1 <0>         0.0000
     17 H4         -2.0438    1.5309    0.8066 H         1 <0>         0.0000
     18 H5          0.0547    2.8009    0.9282 H         1 <0>         0.0000
     19 H6         -0.1247    1.8617    2.4380 H         1 <0>         0.0000
     20 H7          2.5503    0.4576   -0.2536 H         1 <0>         0.0000
     21 H8          1.6695    1.9478   -0.7055 H         1 <0>         0.0000
     22 H9          0.4800   -0.8488   -0.4080 H         1 <0>         0.0000
     23 H10        -2.4422   -1.2653   -4.4762 H         1 <0>         0.0000
     24 H11        -2.4780   -1.9324   -6.1176 H         1 <0>         0.0000
     25 H12        -1.9200   -0.2694   -5.8433 H         1 <0>         0.0000
     26 H13         0.0344   -1.8242   -6.2279 H         1 <0>         0.0000
     27 H14        -0.5020   -2.8341   -4.8914 H         1 <0>         0.0000
     28 H15        -1.5197    0.3127   -1.1941 H         1 <0>         0.0000
@<TRIPOS>BOND
     1    1    2 1
     2    1    3 2
     3    1   14 1
     4    2    4 2
     5    2   15 1
     6    3    8 1
     7    3   12 1
     8    4   10 1
     9    4   12 1
    10    5    6 1
    11    5   11 1
    12    5   16 1
    13    5   17 1
    14    6   13 1
    15    6   18 1
    16    6   19 1
    17    7    8 1
    18    7   13 1
    19    7   20 1
    20    7   21 1
    21    8   11 1
    22    8   22 1
    23    9   10 1
    24    9   23 1
    25    9   24 1
    26    9   25 1
    27   10   26 1
    28   10   27 1
    29   11   28 1
