@<TRIPOS>MOLECULE
*****
   22    22     0     0     0
SMALL
NO_CHARGES

@<TRIPOS>ATOM
      1 C1          1.9031   -2.0316    0.4330 C.ar      1 <0>         0.0000
      2 C2          0.8642   -1.5001    1.2026 C.ar      1 <0>         0.0000
      3 C3          2.4791   -0.3200    2.5726 C.ar      1 <0>         0.0000
      4 C4          3.2370   -1.7112    0.7170 C.ar      1 <0>         0.0000
      5 C5          1.1572   -0.6478    2.2641 C.ar      1 <0>         0.0000
      6 C6          3.5079   -0.8542    1.8011 C.ar      1 <0>         0.0000
      7 C7          3.7039   -4.4468   -0.6018 C.2       1 <0>         0.0000
      8 C8          4.1040   -3.0705   -1.0762 C.3       1 <0>         0.0000
      9 N1          2.7375   -5.0195   -1.2378 N.2       1 <0>         0.0000
     10 N2          4.4515   -4.9971    0.4111 N.pl3     1 <0>         0.0000
     11 O1          2.5242   -6.3262   -0.7022 O.3       1 <0>         0.0000
     12 O2          4.3194   -2.1678    0.0162 O.3       1 <0>         0.0000
     13 Cl1        -0.1419    0.0222    3.2364 Cl        1 <0>         0.0000
     14 Cl2         5.1655   -0.4544    2.1914 Cl        1 <0>         0.0000
     15 H1          1.6598   -2.7115   -0.3743 H         1 <0>         0.0000
     16 H2         -0.1651   -1.7565    0.9747 H         1 <0>         0.0000
     17 H3          2.7096    0.3407    3.4011 H         1 <0>         0.0000
     18 H4          3.3614   -2.6899   -1.7817 H         1 <0>         0.0000
     19 H5          5.0752   -3.1181   -1.5742 H         1 <0>         0.0000
     20 H6          4.0422   -5.8099    0.8571 H         1 <0>         0.0000
     21 H7          4.8944   -4.3337    1.0361 H         1 <0>         0.0000
     22 H8          1.7792   -6.6492   -1.2325 H         1 <0>         0.0000
@<TRIPOS>BOND
     1    1    2 ar
     2    1    4 ar
     3    1   15 1
     4    2    5 ar
     5    2   16 1
     6    3    5 ar
     7    3    6 ar
     8    3   17 1
     9    4    6 ar
    10    4   12 1
    11    5   13 1
    12    6   14 1
    13    7    8 1
    14    7    9 2
    15    7   10 1
    16    8   12 1
    17    8   18 1
    18    8   19 1
    19    9   11 1
    20   10   20 1
    21   10   21 1
    22   11   22 1
