@<TRIPOS>MOLECULE
*****
   22    22     0     0     0
SMALL
NO_CHARGES

@<TRIPOS>ATOM
      1 C1          1.7893   -1.2815   -0.4117 C.ar      1 <0>         0.0000
      2 C2          0.6559   -0.6688    0.1237 C.ar      1 <0>         0.0000
      3 C3          1.5947   -0.9155    2.3538 C.ar      1 <0>         0.0000
      4 C4          2.8295   -1.7188    0.4128 C.ar      1 <0>         0.0000
      5 C5          0.5713   -0.4911    1.5054 C.ar      1 <0>         0.0000
      6 C6          2.7202   -1.5275    1.7994 C.ar      1 <0>         0.0000
      7 C7          4.8386   -0.7364   -1.6793 C.2       1 <0>         0.0000
      8 C8          5.0521   -1.5081   -0.4049 C.3       1 <0>         0.0000
      9 N1          4.9663    0.5467   -1.6163 N.2       1 <0>         0.0000
     10 N2          4.5793   -1.4682   -2.8180 N.pl3     1 <0>         0.0000
     11 O1          4.7485    1.1092   -2.9115 O.3       1 <0>         0.0000
     12 O2          3.9197   -2.3667   -0.1251 O.3       1 <0>         0.0000
     13 Cl1        -0.8464    0.2771    2.1964 Cl        1 <0>         0.0000
     14 Cl2         4.0059   -2.0672    2.8549 Cl        1 <0>         0.0000
     15 H1          1.8790   -1.4276   -1.4835 H         1 <0>         0.0000
     16 H2         -0.1484   -0.3316   -0.5216 H         1 <0>         0.0000
     17 H3          1.5202   -0.7778    3.4269 H         1 <0>         0.0000
     18 H4          5.2367   -0.8142    0.4169 H         1 <0>         0.0000
     19 H5          5.8995   -2.1905   -0.5067 H         1 <0>         0.0000
     20 H6          4.2284   -0.9352   -3.6051 H         1 <0>         0.0000
     21 H7          4.1345   -2.3652   -2.6650 H         1 <0>         0.0000
     22 H8          4.8430    2.0593   -2.7413 H         1 <0>         0.0000
@<TRIPOS>BOND
     1    1    2 ar
     2    1    4 ar
     3    1   15 1
     4    2    5 ar
     5    2   16 1
     6    3    5 ar
     7    3    6 ar
     8    3   17 1
     9    4    6 ar
    10    4   12 1
    11    5   13 1
    12    6   14 1
    13    7    8 1
    14    7    9 2
    15    7   10 1
    16    8   12 1
    17    8   18 1
    18    8   19 1
    19    9   11 1
    20   10   20 1
    21   10   21 1
    22   11   22 1
