@<TRIPOS>MOLECULE
*****
   20    21     0     0     0
SMALL
NO_CHARGES

@<TRIPOS>ATOM
      1 C1          1.6966   -0.9919    0.2271 C.ar      1 <0>         0.0000
      2 C2          0.6238   -0.2953    0.7867 C.ar      1 <0>         0.0000
      3 C3          2.4944   -1.5437    2.4589 C.ar      1 <0>         0.0000
      4 C4          0.8947    2.7195    5.4572 C.2       1 <0>         0.0000
      5 C5          0.6362    2.3197    6.7496 C.2       1 <0>         0.0000
      6 C6          1.4382   -0.8152    3.0277 C.ar      1 <0>         0.0000
      7 C7          2.6114   -1.6074    1.0785 C.ar      1 <0>         0.0000
      8 C8          0.5103   -0.2144    2.1707 C.ar      1 <0>         0.0000
      9 C9          1.0795    0.5400    5.1665 C.2       1 <0>         0.0000
     10 C10         1.3520   -0.7657    4.5222 C.2       1 <0>         0.0000
     11 N1          1.1425    1.7078    4.5722 N.2       1 <0>         0.0000
     12 O1          1.5628   -1.7637    5.2040 O.2       1 <0>         0.0000
     13 F1          3.6483   -2.2945    0.5368 F         1 <0>         0.0000
     14 F2         -0.5725    0.4135    2.6830 F         1 <0>         0.0000
     15 S1          0.7177    0.6048    6.8798 S.3       1 <0>         0.0000
     16 H1          1.8212   -1.0693   -0.8484 H         1 <0>         0.0000
     17 H2         -0.1289    0.1773    0.1639 H         1 <0>         0.0000
     18 H3          3.2146   -2.0447    3.0974 H         1 <0>         0.0000
     19 H4          0.9123    3.7486    5.1153 H         1 <0>         0.0000
     20 H5          0.4072    2.9411    7.6061 H         1 <0>         0.0000
@<TRIPOS>BOND
     1    1    2 ar
     2    1    7 ar
     3    1   16 1
     4    2    8 ar
     5    2   17 1
     6    3    6 ar
     7    3    7 ar
     8    3   18 1
     9    4    5 2
    10    4   11 1
    11    4   19 1
    12    5   15 1
    13    5   20 1
    14    6    8 ar
    15    6   10 1
    16    7   13 1
    17    8   14 1
    18    9   10 1
    19    9   11 2
    20    9   15 1
    21   10   12 2
