@<TRIPOS>MOLECULE
*****
   32    34     0     0     0
SMALL
NO_CHARGES

@<TRIPOS>ATOM
      1 C1          7.7625   -0.9104    2.8981 C.1       1 <0>         0.0000
      2 C2          2.3856   -0.6571   -0.7681 C.ar      1 <0>         0.0000
      3 C3          1.0599   -1.0971   -0.7237 C.ar      1 <0>         0.0000
      4 C4          3.2364   -0.9424    0.2965 C.ar      1 <0>         0.0000
      5 C5          0.6037   -1.8160    0.3836 C.ar      1 <0>         0.0000
      6 C6          8.4089   -2.8758    7.2309 C.2       1 <0>         0.0000
      7 C7          8.0028   -3.5565    8.3402 C.2       1 <0>         0.0000
      8 C8          6.1791   -3.2923    6.6699 C.2       1 <0>         0.0000
      9 C9          2.7800   -1.6663    1.4149 C.ar      1 <0>         0.0000
     10 C10         7.3654   -2.7074    6.2415 C.2       1 <0>         0.0000
     11 C11         1.4378   -2.1174    1.4695 C.ar      1 <0>         0.0000
     12 C12         3.7616   -1.9112    2.4836 C.2       1 <0>         0.0000
     13 C13         5.6173   -1.8603    3.4960 C.2       1 <0>         0.0000
     14 C14         7.6835   -1.9988    5.0195 C.2       1 <0>         0.0000
     15 C15         7.0037   -1.6363    3.8855 C.2       1 <0>         0.0000
     16 C16         0.8728   -2.8984    2.6305 C.3       1 <0>         0.0000
     17 N1          8.4124   -0.3262    2.1277 N.1       1 <0>         0.0000
     18 N2          5.0679   -1.4621    2.3810 N.2       1 <0>         0.0000
     19 N3          3.5152   -2.5580    3.6115 N.2       1 <0>         0.0000
     20 O1          4.7543   -2.5264    4.2918 O.3       1 <0>         0.0000
     21 S1          6.3326   -4.0170    8.2167 S.3       1 <0>         0.0000
     22 H1          2.7540   -0.0972   -1.6232 H         1 <0>         0.0000
     23 H2          0.3823   -0.8831   -1.5463 H         1 <0>         0.0000
     24 H3          4.2684   -0.6098    0.2800 H         1 <0>         0.0000
     25 H4         -0.4289   -2.1551    0.4098 H         1 <0>         0.0000
     26 H5          9.4174   -2.4957    7.1011 H         1 <0>         0.0000
     27 H6          8.5784   -3.8154    9.2194 H         1 <0>         0.0000
     28 H7          5.2334   -3.3315    6.1555 H         1 <0>         0.0000
     29 H8          8.7212   -1.6735    5.0000 H         1 <0>         0.0000
     30 H9          1.4258   -3.8274    2.7972 H         1 <0>         0.0000
     31 H10         0.9394   -2.3332    3.5649 H         1 <0>         0.0000
     32 H11        -0.1760   -3.1451    2.4464 H         1 <0>         0.0000
@<TRIPOS>BOND
     1    1   15 1
     2    1   17 3
     3    2    3 ar
     4    2    4 ar
     5    2   22 1
     6    3    5 ar
     7    3   23 1
     8    4    9 ar
     9    4   24 1
    10    5   11 ar
    11    5   25 1
    12    6    7 2
    13    6   10 1
    14    6   26 1
    15    7   21 1
    16    7   27 1
    17    8   10 2
    18    8   21 1
    19    8   28 1
    20    9   11 ar
    21    9   12 1
    22   10   14 1
    23   11   16 1
    24   12   18 1
    25   12   19 2
    26   13   15 1
    27   13   18 2
    28   13   20 1
    29   14   15 2
    30   14   29 1
    31   16   30 1
    32   16   31 1
    33   16   32 1
    34   19   20 1
