@<TRIPOS>MOLECULE
*****
   32    34     0     0     0
SMALL
NO_CHARGES

@<TRIPOS>ATOM
      1 C1          7.3087   -3.1225    2.7718 C.1       1 <0>         0.0000
      2 C2          1.9145   -1.4815   -0.4878 C.ar      1 <0>         0.0000
      3 C3          0.6787   -0.8774   -0.2410 C.ar      1 <0>         0.0000
      4 C4          2.8184   -1.6409    0.5591 C.ar      1 <0>         0.0000
      5 C5          0.3639   -0.4413    1.0480 C.ar      1 <0>         0.0000
      6 C6          8.3642   -2.5287    7.4179 C.2       1 <0>         0.0000
      7 C7          8.1005   -2.1194    8.6915 C.2       1 <0>         0.0000
      8 C8          6.2230   -1.6371    7.1333 C.2       1 <0>         0.0000
      9 C9          2.5048   -1.2024    1.8601 C.ar      1 <0>         0.0000
     10 C10         7.2863   -2.2598    6.4895 C.2       1 <0>         0.0000
     11 C11         1.2545   -0.5888    2.1208 C.ar      1 <0>         0.0000
     12 C12         3.5318   -1.4195    2.8915 C.2       1 <0>         0.0000
     13 C13         5.3690   -2.0402    3.7347 C.2       1 <0>         0.0000
     14 C14         7.4559   -2.6521    5.1060 C.2       1 <0>         0.0000
     15 C15         6.7034   -2.5803    3.9623 C.2       1 <0>         0.0000
     16 C16         0.8436   -0.0927    3.4854 C.3       1 <0>         0.0000
     17 N1          7.8349   -3.5714    1.8344 N.1       1 <0>         0.0000
     18 N2          4.7401   -2.0265    2.5910 N.2       1 <0>         0.0000
     19 N3          3.4194   -1.0737    4.1639 N.2       1 <0>         0.0000
     20 O1          4.6465   -1.4871    4.7317 O.3       1 <0>         0.0000
     21 S1          6.5277   -1.3909    8.8030 S.3       1 <0>         0.0000
     22 H1          2.1724   -1.8254   -1.4855 H         1 <0>         0.0000
     23 H2         -0.0387   -0.7452   -1.0469 H         1 <0>         0.0000
     24 H3          3.7822   -2.1073    0.3874 H         1 <0>         0.0000
     25 H4         -0.5998    0.0276    1.2313 H         1 <0>         0.0000
     26 H5          9.2926   -3.0102    7.1271 H         1 <0>         0.0000
     27 H6          8.7297   -2.2000    9.5683 H         1 <0>         0.0000
     28 H7          5.2860   -1.3151    6.7103 H         1 <0>         0.0000
     29 H8          8.4223   -3.1208    4.9350 H         1 <0>         0.0000
     30 H9          0.8466   -0.8997    4.2241 H         1 <0>         0.0000
     31 H10         1.5356    0.6665    3.8620 H         1 <0>         0.0000
     32 H11        -0.1596    0.3394    3.4452 H         1 <0>         0.0000
@<TRIPOS>BOND
     1    1   15 1
     2    1   17 3
     3    2    3 ar
     4    2    4 ar
     5    2   22 1
     6    3    5 ar
     7    3   23 1
     8    4    9 ar
     9    4   24 1
    10    5   11 ar
    11    5   25 1
    12    6    7 2
    13    6   10 1
    14    6   26 1
    15    7   21 1
    16    7   27 1
    17    8   10 2
    18    8   21 1
    19    8   28 1
    20    9   11 ar
    21    9   12 1
    22   10   14 1
    23   11   16 1
    24   12   18 1
    25   12   19 2
    26   13   15 1
    27   13   18 2
    28   13   20 1
    29   14   15 2
    30   14   29 1
    31   16   30 1
    32   16   31 1
    33   16   32 1
    34   19   20 1
