@<TRIPOS>MOLECULE
*****
   22    22     0     0     0
SMALL
NO_CHARGES

@<TRIPOS>ATOM
      1 C1          1.5284   -1.5553   -0.1921 C.ar      1 <0>         0.0000
      2 C2          0.5156   -1.1815    0.6921 C.ar      1 <0>         0.0000
      3 C3          2.0960   -1.3275    2.5364 C.ar      1 <0>         0.0000
      4 C4          2.8235   -1.8175    0.2646 C.ar      1 <0>         0.0000
      5 C5          0.8121   -1.0731    2.0522 C.ar      1 <0>         0.0000
      6 C6          3.0968   -1.6999    1.6366 C.ar      1 <0>         0.0000
      7 C7          5.0278   -3.7345   -1.9146 C.2       1 <0>         0.0000
      8 C8          4.0109   -3.5589   -0.8228 C.3       1 <0>         0.0000
      9 N1          5.9189   -4.6488   -1.7284 N.2       1 <0>         0.0000
     10 N2          4.8578   -2.9804   -3.0571 N.pl3     1 <0>         0.0000
     11 O1          6.7519   -4.7416   -2.8855 O.3       1 <0>         0.0000
     12 O2          3.8144   -2.1378   -0.6334 O.3       1 <0>         0.0000
     13 Cl1        -0.4469   -0.6041    3.1795 Cl        1 <0>         0.0000
     14 Cl2         4.7102   -2.0113    2.2304 Cl        1 <0>         0.0000
     15 H1          1.3285   -1.6408   -1.2565 H         1 <0>         0.0000
     16 H2         -0.4868   -0.9748    0.3322 H         1 <0>         0.0000
     17 H3          2.3190   -1.2353    3.5937 H         1 <0>         0.0000
     18 H4          4.3719   -4.0319    0.0930 H         1 <0>         0.0000
     19 H5          3.0551   -4.0100   -1.1192 H         1 <0>         0.0000
     20 H6          5.6637   -2.9789   -3.6729 H         1 <0>         0.0000
     21 H7          4.4579   -2.0645   -2.8867 H         1 <0>         0.0000
     22 H8          7.4039   -5.4066   -2.6155 H         1 <0>         0.0000
@<TRIPOS>BOND
     1    1    2 ar
     2    1    4 ar
     3    1   15 1
     4    2    5 ar
     5    2   16 1
     6    3    5 ar
     7    3    6 ar
     8    3   17 1
     9    4    6 ar
    10    4   12 1
    11    5   13 1
    12    6   14 1
    13    7    8 1
    14    7    9 2
    15    7   10 1
    16    8   12 1
    17    8   18 1
    18    8   19 1
    19    9   11 1
    20   10   20 1
    21   10   21 1
    22   11   22 1
