@<TRIPOS>MOLECULE
*****
   10    10     0     0     0
SMALL
NO_CHARGES

@<TRIPOS>ATOM
      1 C1         -0.0840   -0.9376    0.5078 C.2       1 <0>         0.0000
      2 C2         -0.5481   -1.1715    1.7853 C.2       1 <0>         0.0000
      3 C3         -0.1052   -3.2521    1.2597 C.2       1 <0>         0.0000
      4 C4          0.0329   -4.7264    1.3441 C.2       1 <0>         0.0000
      5 N1         -0.5594   -2.4616    2.2027 N.2       1 <0>         0.0000
      6 O1         -0.2651   -5.3872    2.3180 O.2       1 <0>         0.0000
      7 S1          0.3680   -2.4267   -0.2195 S.3       1 <0>         0.0000
      8 Cl1        -1.1008    0.0850    2.8443 Cl        1 <0>         0.0000
      9 H1          0.0047    0.0089   -0.0076 H         1 <0>         0.0000
     10 H2          0.4413   -5.1933    0.4224 H         1 <0>         0.0000
@<TRIPOS>BOND
     1    1    2 2
     2    1    7 1
     3    1    9 1
     4    2    5 1
     5    2    8 1
     6    3    4 1
     7    3    5 2
     8    3    7 1
     9    4    6 2
    10    4   10 1
