@<TRIPOS>MOLECULE
*****
   32    34     0     0     0
SMALL
NO_CHARGES

@<TRIPOS>ATOM
      1 C1          7.5767   -3.4558    4.5375 C.1       1 <0>         0.0000
      2 C2          1.8153    0.0721    0.4032 C.ar      1 <0>         0.0000
      3 C3          0.4957   -0.0251    0.8531 C.ar      1 <0>         0.0000
      4 C4          2.8327   -0.5282    1.1403 C.ar      1 <0>         0.0000
      5 C5          0.2143   -0.7230    2.0293 C.ar      1 <0>         0.0000
      6 C6          7.1797    0.2459    1.5788 C.2       1 <0>         0.0000
      7 C7          7.6589    1.2538    0.7946 C.2       1 <0>         0.0000
      8 C8          9.4865   -0.1030    1.7553 C.2       1 <0>         0.0000
      9 C9          2.5539   -1.2343    2.3258 C.ar      1 <0>         0.0000
     10 C10         8.2319   -0.5602    2.1525 C.2       1 <0>         0.0000
     11 C11         1.2189   -1.3416    2.7877 C.ar      1 <0>         0.0000
     12 C12         3.7008   -1.8311    3.0294 C.2       1 <0>         0.0000
     13 C13         5.7197   -2.2507    3.5019 C.2       1 <0>         0.0000
     14 C14         8.1749   -1.6906    3.0506 C.2       1 <0>         0.0000
     15 C15         7.1645   -2.4026    3.6445 C.2       1 <0>         0.0000
     16 C16         0.8347   -2.0809    4.0459 C.3       1 <0>         0.0000
     17 N1          7.9445   -4.2998    5.2518 N.1       1 <0>         0.0000
     18 N2          5.0080   -1.5333    2.6749 N.2       1 <0>         0.0000
     19 N3          3.6151   -2.6946    4.0258 N.2       1 <0>         0.0000
     20 O1          4.9516   -2.9784    4.3444 O.3       1 <0>         0.0000
     21 S1          9.3986    1.2586    0.7197 S.3       1 <0>         0.0000
     22 H1          2.0490    0.6079   -0.5127 H         1 <0>         0.0000
     23 H2         -0.3115    0.4389    0.2922 H         1 <0>         0.0000
     24 H3          3.8606   -0.4674    0.8001 H         1 <0>         0.0000
     25 H4         -0.8146   -0.7926    2.3735 H         1 <0>         0.0000
     26 H5          6.1307    0.0553    1.7529 H         1 <0>         0.0000
     27 H6          7.0954    2.0000    0.2490 H         1 <0>         0.0000
     28 H7         10.4486   -0.5127    2.0378 H         1 <0>         0.0000
     29 H8          9.1626   -2.0489    3.3321 H         1 <0>         0.0000
     30 H9          1.0533   -3.1495    3.9639 H         1 <0>         0.0000
     31 H10         1.3973   -1.7228    4.9129 H         1 <0>         0.0000
     32 H11        -0.2327   -1.9578    4.2462 H         1 <0>         0.0000
@<TRIPOS>BOND
     1    1   15 1
     2    1   17 3
     3    2    3 ar
     4    2    4 ar
     5    2   22 1
     6    3    5 ar
     7    3   23 1
     8    4    9 ar
     9    4   24 1
    10    5   11 ar
    11    5   25 1
    12    6    7 2
    13    6   10 1
    14    6   26 1
    15    7   21 1
    16    7   27 1
    17    8   10 2
    18    8   21 1
    19    8   28 1
    20    9   11 ar
    21    9   12 1
    22   10   14 1
    23   11   16 1
    24   12   18 1
    25   12   19 2
    26   13   15 1
    27   13   18 2
    28   13   20 1
    29   14   15 2
    30   14   29 1
    31   16   30 1
    32   16   31 1
    33   16   32 1
    34   19   20 1
