@<TRIPOS>MOLECULE
*****
   53    58     0     0     0
SMALL
NO_CHARGES

@<TRIPOS>ATOM
      1 C1         -6.3259   -3.5399    3.1567 C.ar      1 <0>         0.0000
      2 C2         -7.1810   -3.4147    2.0618 C.ar      1 <0>         0.0000
      3 C3         -5.6704   -2.4170    3.6617 C.ar      1 <0>         0.0000
      4 C4         -7.3808   -2.1665    1.4720 C.ar      1 <0>         0.0000
      5 C5         -5.8702   -1.1688    3.0719 C.ar      1 <0>         0.0000
      6 C6         -3.7249    1.7778    1.2107 C.ar      1 <0>         0.0000
      7 C7         -4.1679   -0.2159   -0.0800 C.ar      1 <0>         0.0000
      8 C8         -2.3537    1.5615    1.0742 C.ar      1 <0>         0.0000
      9 C9         -2.7967   -0.4322   -0.2165 C.ar      1 <0>         0.0000
     10 C10       -10.4608    1.2345    1.5079 C.2       1 <0>         0.0000
     11 C11        -9.3926    0.4543    1.7065 C.2       1 <0>         0.0000
     12 C12        -4.6320    0.8891    0.6336 C.ar      1 <0>         0.0000
     13 C13        -6.7254   -1.0436    1.9771 C.ar      1 <0>         0.0000
     14 C14        -1.8896    0.4564    0.3606 C.ar      1 <0>         0.0000
     15 C15        -6.0399    1.1113    0.7736 C.2       1 <0>         0.0000
     16 C16        -6.9318    0.2511    1.3649 C.2       1 <0>         0.0000
     17 C17       -10.1587    2.5160    0.8111 C.2       1 <0>         0.0000
     18 C18        -7.9452    2.0909    0.6254 C.2       1 <0>         0.0000
     19 C19         1.4822   -0.5877    1.0732 C.3       1 <0>         0.0000
     20 C20       -11.2862    4.8034    1.0842 C.3       1 <0>         0.0000
     21 C21       -12.1740    3.7962    1.7509 C.3       1 <0>         0.0000
     22 C22         0.2477   -1.2146    0.3959 C.3       1 <0>         0.0000
     23 C23         0.6437    0.6829    1.3130 C.3       1 <0>         0.0000
     24 C24       -11.3347    3.3969    0.5802 C.3       1 <0>         0.0000
     25 C25        -0.3424    0.2114    0.2076 C.3       1 <0>         0.0000
     26 N1         -6.6688    2.2415    0.3203 N.2       1 <0>         0.0000
     27 N2         -9.0001    2.9292    0.3950 N.2       1 <0>         0.0000
     28 N3         -8.1470    0.8755    1.2708 N.pl3     1 <0>         0.0000
     29 N4          0.1262    0.7357   -1.0866 N.3       1 <0>         0.0000
     30 H1         -6.1698   -4.5119    3.6155 H         1 <0>         0.0000
     31 H2         -7.6906   -4.2893    1.6678 H         1 <0>         0.0000
     32 H3         -5.0048   -2.5147    4.5143 H         1 <0>         0.0000
     33 H4         -8.0514   -2.0853    0.6199 H         1 <0>         0.0000
     34 H5         -5.3500   -0.3035    3.4756 H         1 <0>         0.0000
     35 H6         -4.0705    2.6437    1.7706 H         1 <0>         0.0000
     36 H7         -4.8621   -0.9182   -0.5355 H         1 <0>         0.0000
     37 H8         -1.6529    2.2578    1.5266 H         1 <0>         0.0000
     38 H9         -2.4425   -1.2953   -0.7737 H         1 <0>         0.0000
     39 H10       -11.4642    0.9788    1.8164 H         1 <0>         0.0000
     40 H11        -9.4708   -0.5061    2.2016 H         1 <0>         0.0000
     41 H12         2.3327   -0.4390    0.3987 H         1 <0>         0.0000
     42 H13         1.8345   -1.0968    1.9744 H         1 <0>         0.0000
     43 H14       -11.7564    5.5644    0.4734 H         1 <0>         0.0000
     44 H15       -10.4138    5.1432    1.6291 H         1 <0>         0.0000
     45 H16       -11.8967    3.4582    2.7420 H         1 <0>         0.0000
     46 H17       -13.2418    3.8786    1.5886 H         1 <0>         0.0000
     47 H18         0.4489   -1.7895   -0.5145 H         1 <0>         0.0000
     48 H19        -0.3331   -1.8525    1.0753 H         1 <0>         0.0000
     49 H20         0.2046    0.7194    2.3190 H         1 <0>         0.0000
     50 H21         1.1626    1.6321    1.1399 H         1 <0>         0.0000
     51 H22       -11.8311    3.2151   -0.3577 H         1 <0>         0.0000
     52 H23        -0.3626    0.2624   -1.8094 H         1 <0>         0.0000
     53 H24        -0.0641    1.7096   -1.1144 H         1 <0>         0.0000
@<TRIPOS>BOND
     1    1    3 ar
     2    1    2 ar
     3    1   30 1
     4    2    4 ar
     5    2   31 1
     6    3    5 ar
     7    3   32 1
     8    4   13 ar
     9    4   33 1
    10    5   13 ar
    11    5   34 1
    12    6    8 ar
    13    6   12 ar
    14    6   35 1
    15    7    9 ar
    16    7   12 ar
    17    7   36 1
    18    8   14 ar
    19    8   37 1
    20    9   14 ar
    21    9   38 1
    22   10   11 2
    23   10   17 1
    24   10   39 1
    25   11   28 1
    26   11   40 1
    27   12   15 1
    28   13   16 1
    29   14   25 1
    30   15   16 2
    31   15   26 1
    32   16   28 1
    33   17   24 1
    34   17   27 2
    35   18   26 2
    36   18   27 1
    37   18   28 1
    38   19   23 1
    39   19   22 1
    40   19   41 1
    41   19   42 1
    42   20   21 1
    43   20   24 1
    44   20   43 1
    45   20   44 1
    46   21   24 1
    47   21   45 1
    48   21   46 1
    49   22   25 1
    50   22   47 1
    51   22   48 1
    52   23   25 1
    53   23   49 1
    54   23   50 1
    55   24   51 1
    56   25   29 1
    57   29   52 1
    58   29   53 1
