@<TRIPOS>MOLECULE
*****
   50    53     0     0     0
SMALL
NO_CHARGES

@<TRIPOS>ATOM
      1 C1          5.5925    0.4518    0.2286 C.ar      1 <0>         0.0000
      2 C2          1.2467    1.7887    0.9896 C.ar      1 <0>         0.0000
      3 C3          6.9400    0.5434    0.5742 C.ar      1 <0>         0.0000
      4 C4          0.5390    2.7944    1.6512 C.ar      1 <0>         0.0000
      5 C5          8.6456   -1.6625   -1.7353 C.2       1 <0>         0.0000
      6 C6          6.0703   -1.1321   -1.5749 C.ar      1 <0>         0.0000
      7 C7          9.6489   -1.1679   -0.9642 C.2       1 <0>         0.0000
      8 C8          7.4271   -1.0606   -1.2389 C.ar      1 <0>         0.0000
      9 C9          5.1555   -0.3806   -0.8298 C.ar      1 <0>         0.0000
     10 C10         0.5782    0.7521    0.3305 C.ar      1 <0>         0.0000
     11 C11        -0.8366    0.6907    0.3051 C.ar      1 <0>         0.0000
     12 C12         7.8258   -0.2275   -0.1721 C.ar      1 <0>         0.0000
     13 C13        -1.5412    1.7358    0.9285 C.ar      1 <0>         0.0000
     14 C14        -0.8370    2.7430    1.5990 C.ar      1 <0>         0.0000
     15 C15         3.7167   -0.4944   -1.2060 C.2       1 <0>         0.0000
     16 C16        -0.6731   -1.7419   -0.1307 C.3       1 <0>         0.0000
     17 C17         1.3710   -0.2372   -0.5121 C.3       1 <0>         0.0000
     18 C18        -1.5138   -0.4794   -0.4211 C.3       1 <0>         0.0000
     19 C19         0.8043   -1.6991   -0.5349 C.3       1 <0>         0.0000
     20 C20        -1.6172   -0.1764   -1.9331 C.3       1 <0>         0.0000
     21 C21        -2.9302   -0.8159    0.0971 C.3       1 <0>         0.0000
     22 C22         1.5778   -2.6248    0.4404 C.3       1 <0>         0.0000
     23 N1          2.8021   -0.1548   -0.2448 N.am      1 <0>         0.0000
     24 O1          3.3644   -0.8802   -2.3311 O.2       1 <0>         0.0000
     25 O2          9.1833   -0.2911   -0.0029 O.3       1 <0>         0.0000
     26 O3         -2.9081    1.8151    0.8833 O.3       1 <0>         0.0000
     27 O4          0.9191   -2.2467   -1.8362 O.3       1 <0>         0.0000
     28 F1         -1.5909    3.7184    2.1986 F         1 <0>         0.0000
     29 F2          0.9366   -3.7964    0.6354 F         1 <0>         0.0000
     30 F3          2.8207   -2.9341    0.0060 F         1 <0>         0.0000
     31 F4          1.7190   -2.0382    1.6680 F         1 <0>         0.0000
     32 H1          4.8769    1.0673    0.7652 H         1 <0>         0.0000
     33 H2          2.3276    1.8476    0.9587 H         1 <0>         0.0000
     34 H3          7.2849    1.1893    1.3753 H         1 <0>         0.0000
     35 H4          1.0355    3.6073    2.1715 H         1 <0>         0.0000
     36 H5          8.7532   -2.3638   -2.5521 H         1 <0>         0.0000
     37 H6          5.7076   -1.7503   -2.3896 H         1 <0>         0.0000
     38 H7         10.7183   -1.3259   -0.9592 H         1 <0>         0.0000
     39 H8         -0.7493   -1.9336    0.9434 H         1 <0>         0.0000
     40 H9         -1.1098   -2.6010   -0.6450 H         1 <0>         0.0000
     41 H10         1.2630    0.0865   -1.5498 H         1 <0>         0.0000
     42 H11        -2.0548   -1.0325   -2.4569 H         1 <0>         0.0000
     43 H12        -0.6503    0.0254   -2.3970 H         1 <0>         0.0000
     44 H13        -2.2614    0.6937   -2.0933 H         1 <0>         0.0000
     45 H14        -3.2352   -1.7810   -0.3215 H         1 <0>         0.0000
     46 H15        -3.6654   -0.0701   -0.1997 H         1 <0>         0.0000
     47 H16        -2.9525   -0.8983    1.1880 H         1 <0>         0.0000
     48 H17         3.0986   -0.2021    0.7217 H         1 <0>         0.0000
     49 H18        -3.1772    2.6083    1.3784 H         1 <0>         0.0000
     50 H19         1.7733   -1.9451   -2.2174 H         1 <0>         0.0000
@<TRIPOS>BOND
     1    1    3 ar
     2    1    9 ar
     3    1   32 1
     4    2    4 ar
     5    2   10 ar
     6    2   33 1
     7    3   12 ar
     8    3   34 1
     9    4   14 ar
    10    4   35 1
    11    5    7 2
    12    5    8 1
    13    5   36 1
    14    6    8 ar
    15    6    9 ar
    16    6   37 1
    17    7   25 1
    18    7   38 1
    19    8   12 ar
    20    9   15 1
    21   10   11 ar
    22   10   17 1
    23   11   13 ar
    24   11   18 1
    25   12   25 1
    26   13   14 ar
    27   13   26 1
    28   14   28 1
    29   15   23 am
    30   15   24 2
    31   16   18 1
    32   16   19 1
    33   16   39 1
    34   16   40 1
    35   17   19 1
    36   17   23 1
    37   17   41 1
    38   18   20 1
    39   18   21 1
    40   19   22 1
    41   19   27 1
    42   20   42 1
    43   20   43 1
    44   20   44 1
    45   21   45 1
    46   21   46 1
    47   21   47 1
    48   22   29 1
    49   22   30 1
    50   22   31 1
    51   23   48 1
    52   26   49 1
    53   27   50 1
