@<TRIPOS>MOLECULE
*****
   65    69     0     0     0
SMALL
NO_CHARGES

@<TRIPOS>ATOM
      1 C1          5.2196   -7.2354   -3.6866 C.ar      1 <0>         0.0000
      2 C2          6.2258   -1.5331   -7.7383 C.ar      1 <0>         0.0000
      3 C3          6.2490   -6.5344   -4.3200 C.ar      1 <0>         0.0000
      4 C4          5.6109   -0.7178   -8.6866 C.ar      1 <0>         0.0000
      5 C5          5.1769   -0.2761   -5.9578 C.ar      1 <0>         0.0000
      6 C6          4.4346   -6.5583   -2.7503 C.ar      1 <0>         0.0000
      7 C7          5.6086   -4.6108   -3.0397 C.ar      1 <0>         0.0000
      8 C8          6.0084   -1.3240   -6.3687 C.ar      1 <0>         0.0000
      9 C9          6.4570   -5.1896   -4.0004 C.ar      1 <0>         0.0000
     10 C10         4.7475    0.3074   -8.2792 C.ar      1 <0>         0.0000
     11 C11         4.5395    0.5248   -6.9011 C.ar      1 <0>         0.0000
     12 C12         3.6889    2.4143   -8.8879 C.2       1 <0>         0.0000
     13 C13         6.6601   -2.1475   -5.3003 C.2       1 <0>         0.0000
     14 C14         2.7110    1.4912   -5.5822 C.2       1 <0>         0.0000
     15 C15         3.8761    2.7734   -7.4181 C.3       1 <0>         0.0000
     16 C16        -1.8718    5.0781   -2.3385 C.3       1 <0>         0.0000
     17 C17        -1.1590    3.9731   -1.5462 C.3       1 <0>         0.0000
     18 C18        -0.9607    5.6477   -3.4347 C.3       1 <0>         0.0000
     19 C19         2.5697    0.6659  -11.2098 C.3       1 <0>         0.0000
     20 C20         3.2865   -0.6242  -10.8925 C.3       1 <0>         0.0000
     21 C21        -0.6266    2.8737   -2.4750 C.3       1 <0>         0.0000
     22 C22        -0.4298    4.5395   -4.3550 C.3       1 <0>         0.0000
     23 C23         3.9448    0.7051  -10.5972 C.3       1 <0>         0.0000
     24 C24         0.2941    3.4413   -3.5619 C.3       1 <0>         0.0000
     25 C25         7.5385   -4.3692   -4.6737 C.3       1 <0>         0.0000
     26 C26         1.8064    2.7032   -5.3485 C.3       1 <0>         0.0000
     27 N1          4.6191   -5.2699   -2.4241 N.ar      1 <0>         0.0000
     28 N2          4.0658    1.1210   -9.2174 N.am      1 <0>         0.0000
     29 N3          3.6906    1.6111   -6.5559 N.am      1 <0>         0.0000
     30 N4          7.0153   -3.4265   -5.6642 N.am      1 <0>         0.0000
     31 N5          0.7290    2.3545   -4.4424 N.3       1 <0>         0.0000
     32 O1          3.2522    3.2178   -9.6996 O.2       1 <0>         0.0000
     33 O2          6.8756   -1.6981   -4.1735 O.2       1 <0>         0.0000
     34 O3          2.5907    0.4709   -4.9129 O.2       1 <0>         0.0000
     35 H1          5.0297   -8.2820   -3.9080 H         1 <0>         0.0000
     36 H2          6.9129   -2.3035   -8.0764 H         1 <0>         0.0000
     37 H3          6.8862   -7.0299   -5.0507 H         1 <0>         0.0000
     38 H4          5.7979   -0.8767   -9.7420 H         1 <0>         0.0000
     39 H5          5.0234   -0.1056   -4.9004 H         1 <0>         0.0000
     40 H6          3.6237   -7.0720   -2.2357 H         1 <0>         0.0000
     41 H7          5.7434   -3.5664   -2.7640 H         1 <0>         0.0000
     42 H8          4.8892    3.1762   -7.2830 H         1 <0>         0.0000
     43 H9          3.1728    3.5667   -7.1874 H         1 <0>         0.0000
     44 H10        -2.2010    5.8774   -1.6640 H         1 <0>         0.0000
     45 H11        -2.7774    4.6629   -2.8020 H         1 <0>         0.0000
     46 H12        -0.3233    4.4124   -0.9843 H         1 <0>         0.0000
     47 H13        -1.8382    3.5368   -0.8047 H         1 <0>         0.0000
     48 H14        -1.4985    6.3980   -4.0259 H         1 <0>         0.0000
     49 H15        -0.1141    6.1683   -2.9656 H         1 <0>         0.0000
     50 H16         2.4812    0.9846  -12.2432 H         1 <0>         0.0000
     51 H17         1.7410    0.9540  -10.5729 H         1 <0>         0.0000
     52 H18         2.9359   -1.2008  -10.0423 H         1 <0>         0.0000
     53 H19         3.6968   -1.2150  -11.7062 H         1 <0>         0.0000
     54 H20        -0.0862    2.1153   -1.8939 H         1 <0>         0.0000
     55 H21        -1.4634    2.3611   -2.9666 H         1 <0>         0.0000
     56 H22        -1.2589    4.0721   -4.9021 H         1 <0>         0.0000
     57 H23         0.2424    4.9709   -5.1068 H         1 <0>         0.0000
     58 H24         4.7648    1.0235  -11.2369 H         1 <0>         0.0000
     59 H25         1.1644    3.9109   -3.0584 H         1 <0>         0.0000
     60 H26         8.0832   -3.7752   -3.9382 H         1 <0>         0.0000
     61 H27         8.2538   -5.0299   -5.1736 H         1 <0>         0.0000
     62 H28         1.4021    3.0586   -6.3041 H         1 <0>         0.0000
     63 H29         2.4480    3.5164   -4.9572 H         1 <0>         0.0000
     64 H30         6.5429   -3.8252   -6.4658 H         1 <0>         0.0000
     65 H31         1.0228    1.5444   -3.8986 H         1 <0>         0.0000
@<TRIPOS>BOND
     1    1    3 ar
     2    1    6 ar
     3    1   35 1
     4    2    4 ar
     5    2    8 ar
     6    2   36 1
     7    3    9 ar
     8    3   37 1
     9    4   10 ar
    10    4   38 1
    11    5    8 ar
    12    5   11 ar
    13    5   39 1
    14    6   27 ar
    15    6   40 1
    16    7    9 ar
    17    7   27 ar
    18    7   41 1
    19    8   13 1
    20    9   25 1
    21   10   11 ar
    22   10   28 1
    23   11   29 1
    24   12   15 1
    25   12   28 am
    26   12   32 2
    27   13   30 am
    28   13   33 2
    29   14   26 1
    30   14   29 am
    31   14   34 2
    32   15   29 1
    33   15   42 1
    34   15   43 1
    35   16   18 1
    36   16   17 1
    37   16   44 1
    38   16   45 1
    39   17   21 1
    40   17   46 1
    41   17   47 1
    42   18   22 1
    43   18   48 1
    44   18   49 1
    45   19   20 1
    46   19   23 1
    47   19   50 1
    48   19   51 1
    49   20   23 1
    50   20   52 1
    51   20   53 1
    52   21   24 1
    53   21   54 1
    54   21   55 1
    55   22   24 1
    56   22   56 1
    57   22   57 1
    58   23   28 1
    59   23   58 1
    60   24   31 1
    61   24   59 1
    62   25   30 1
    63   25   60 1
    64   25   61 1
    65   26   31 1
    66   26   62 1
    67   26   63 1
    68   30   64 1
    69   31   65 1
