@<TRIPOS>MOLECULE
*****
   65    68     0     0     0
SMALL
NO_CHARGES

@<TRIPOS>ATOM
      1 C1          3.2252    5.7576    4.2367 C.ar      1 <0>         0.0000
      2 C2          1.8818    5.3867    4.3037 C.ar      1 <0>         0.0000
      3 C3         -1.9316    1.5002   -2.5533 C.ar      1 <0>         0.0000
      4 C4          4.1839    4.9303    3.6526 C.ar      1 <0>         0.0000
      5 C5         -2.2936    1.3807   -1.2018 C.ar      1 <0>         0.0000
      6 C6          2.4624    3.3063    3.1711 C.ar      1 <0>         0.0000
      7 C7          0.0215    0.8757   -0.6334 C.ar      1 <0>         0.0000
      8 C8          1.5103    4.1452    3.7644 C.ar      1 <0>         0.0000
      9 C9         -0.6083    1.3173   -2.9401 C.ar      1 <0>         0.0000
     10 C10         0.3621    1.0005   -1.9731 C.ar      1 <0>         0.0000
     11 C11         3.8219    3.6764    3.0966 C.ar      1 <0>         0.0000
     12 C12        -1.3156    1.0742   -0.2442 C.ar      1 <0>         0.0000
     13 C13        -1.7319    2.6293    3.5435 C.2       1 <0>         0.0000
     14 C14        -2.0396    3.8527    4.0703 C.2       1 <0>         0.0000
     15 C15         0.1213    3.6932    3.7734 C.2       1 <0>         0.0000
     16 C16         0.0582    2.5240   -6.6039 C.2       1 <0>         0.0000
     17 C17         1.7155    0.8235   -2.6287 C.3       1 <0>         0.0000
     18 C18         1.5312    1.5096   -4.0020 C.3       1 <0>         0.0000
     19 C19         0.0192    1.3823   -4.3226 C.3       1 <0>         0.0000
     20 C20        -3.2911    4.5437    4.4826 C.3       1 <0>         0.0000
     21 C21         7.0626    3.0100    3.4704 C.3       1 <0>         0.0000
     22 C22         3.8127    1.4983    0.6089 C.3       1 <0>         0.0000
     23 C23        -2.6512    1.5181    3.1364 C.3       1 <0>         0.0000
     24 C24        -0.5268    2.5104   -5.1978 C.3       1 <0>         0.0000
     25 C25         6.1327    3.2779    2.2785 C.3       1 <0>         0.0000
     26 C26         4.4008    1.5135    2.0273 C.3       1 <0>         0.0000
     27 C27        -2.8046    1.3950    1.6180 C.3       1 <0>         0.0000
     28 N1         -0.3516    2.5472    3.3686 N.2       1 <0>         0.0000
     29 N2          4.7589    2.8455    2.5012 N.pl3     1 <0>         0.0000
     30 O1          0.7239    1.6414   -7.0916 O.2       1 <0>         0.0000
     31 O2         -0.8536    4.5461    4.2243 O.3       1 <0>         0.0000
     32 O3         -0.2420    3.6354   -7.3455 O.3       1 <0>         0.0000
     33 O4         -1.5611    0.9396    1.0937 O.3       1 <0>         0.0000
     34 H1          3.5415    6.7104    4.6542 H         1 <0>         0.0000
     35 H2          1.1411    6.0352    4.7588 H         1 <0>         0.0000
     36 H3         -2.7028    1.7361   -3.2840 H         1 <0>         0.0000
     37 H4          5.2158    5.2609    3.6438 H         1 <0>         0.0000
     38 H5         -3.3289    1.5219   -0.9115 H         1 <0>         0.0000
     39 H6          2.1045    2.3744    2.7541 H         1 <0>         0.0000
     40 H7          0.7553    0.6473    0.1344 H         1 <0>         0.0000
     41 H8          2.5353    1.2518   -2.0452 H         1 <0>         0.0000
     42 H9          1.9326   -0.2458   -2.7538 H         1 <0>         0.0000
     43 H10         1.7850    2.5731   -3.9069 H         1 <0>         0.0000
     44 H11         2.1570    1.0875   -4.7900 H         1 <0>         0.0000
     45 H12        -0.1536    0.4356   -4.8508 H         1 <0>         0.0000
     46 H13        -3.2587    4.8285    5.5402 H         1 <0>         0.0000
     47 H14        -3.4565    5.4553    3.8970 H         1 <0>         0.0000
     48 H15        -4.1487    3.8835    4.3335 H         1 <0>         0.0000
     49 H16         6.7119    3.5279    4.3676 H         1 <0>         0.0000
     50 H17         7.1003    1.9393    3.6968 H         1 <0>         0.0000
     51 H18         8.0816    3.3489    3.2508 H         1 <0>         0.0000
     52 H19         2.9034    2.1027    0.5510 H         1 <0>         0.0000
     53 H20         4.5314    1.9020   -0.1125 H         1 <0>         0.0000
     54 H21         3.5654    0.4744    0.3065 H         1 <0>         0.0000
     55 H22        -2.2782    0.5658    3.5273 H         1 <0>         0.0000
     56 H23        -3.6455    1.6818    3.5654 H         1 <0>         0.0000
     57 H24        -1.6161    2.4194   -5.3050 H         1 <0>         0.0000
     58 H25        -0.3452    3.4784   -4.7120 H         1 <0>         0.0000
     59 H26         6.5098    2.7499    1.3961 H         1 <0>         0.0000
     60 H27         6.1458    4.3402    2.0145 H         1 <0>         0.0000
     61 H28         5.3062    0.8979    2.0532 H         1 <0>         0.0000
     62 H29         3.7054    1.0483    2.7325 H         1 <0>         0.0000
     63 H30        -3.6020    0.6794    1.3709 H         1 <0>         0.0000
     64 H31        -3.0647    2.3700    1.1863 H         1 <0>         0.0000
     65 H32        -0.7731    4.2521   -6.8134 H         1 <0>         0.0000
@<TRIPOS>BOND
     1    1    2 ar
     2    1    4 ar
     3    1   34 1
     4    2    8 ar
     5    2   35 1
     6    3    5 ar
     7    3    9 ar
     8    3   36 1
     9    4   11 ar
    10    4   37 1
    11    5   12 ar
    12    5   38 1
    13    6    8 ar
    14    6   11 ar
    15    6   39 1
    16    7   10 ar
    17    7   12 ar
    18    7   40 1
    19    8   15 1
    20    9   10 ar
    21    9   19 1
    22   10   17 1
    23   11   29 1
    24   12   33 1
    25   13   14 2
    26   13   23 1
    27   13   28 1
    28   14   20 1
    29   14   31 1
    30   15   28 2
    31   15   31 1
    32   16   24 1
    33   16   30 2
    34   16   32 1
    35   17   18 1
    36   17   41 1
    37   17   42 1
    38   18   19 1
    39   18   43 1
    40   18   44 1
    41   19   24 1
    42   19   45 1
    43   20   46 1
    44   20   47 1
    45   20   48 1
    46   21   25 1
    47   21   49 1
    48   21   50 1
    49   21   51 1
    50   22   26 1
    51   22   52 1
    52   22   53 1
    53   22   54 1
    54   23   27 1
    55   23   55 1
    56   23   56 1
    57   24   57 1
    58   24   58 1
    59   25   29 1
    60   25   59 1
    61   25   60 1
    62   26   29 1
    63   26   61 1
    64   26   62 1
    65   27   33 1
    66   27   63 1
    67   27   64 1
    68   32   65 1
