@<TRIPOS>MOLECULE
*****
   64    67     0     0     0
SMALL
NO_CHARGES

@<TRIPOS>ATOM
      1 C1          3.5772    5.3465    4.4904 C.ar      1 <0>         0.0000
      2 C2          2.2538    4.9385    4.3215 C.ar      1 <0>         0.0000
      3 C3         -0.1856    0.0731   -2.8377 C.ar      1 <0>         0.0000
      4 C4          4.6474    4.5171    4.1535 C.ar      1 <0>         0.0000
      5 C5         -0.7402    0.1323   -1.5485 C.ar      1 <0>         0.0000
      6 C6          3.0824    2.8130    3.4604 C.ar      1 <0>         0.0000
      7 C7          1.4813   -0.0446   -0.5699 C.ar      1 <0>         0.0000
      8 C8          2.0176    3.6543    3.8053 C.ar      1 <0>         0.0000
      9 C9          1.1960   -0.0248   -2.9916 C.ar      1 <0>         0.0000
     10 C10         2.0177   -0.0954   -1.8539 C.ar      1 <0>         0.0000
     11 C11         4.4229    3.2239    3.6157 C.ar      1 <0>         0.0000
     12 C12         0.0920    0.0800   -0.4224 C.ar      1 <0>         0.0000
     13 C13        -1.0735    2.0001    3.0594 C.2       1 <0>         0.0000
     14 C14        -1.4973    3.2817    3.2766 C.2       1 <0>         0.0000
     15 C15         0.6646    3.1571    3.5678 C.2       1 <0>         0.0000
     16 C16         0.2788    0.4820   -6.1720 C.2       1 <0>         0.0000
     17 C17         3.4666   -0.2630   -2.2658 C.3       1 <0>         0.0000
     18 C18         3.4521    0.1759   -3.7496 C.3       1 <0>         0.0000
     19 C19         2.0126   -0.0965   -4.2704 C.3       1 <0>         0.0000
     20 C20        -2.8069    3.9844    3.2108 C.3       1 <0>         0.0000
     21 C21         7.6147    2.7384    4.5018 C.3       1 <0>         0.0000
     22 C22         4.9197    1.0258    1.2189 C.3       1 <0>         0.0000
     23 C23        -1.8604    0.8076    2.6083 C.3       1 <0>         0.0000
     24 C24         1.5871    0.8537   -5.3948 C.3       1 <0>         0.0000
     25 C25         6.8407    2.8905    3.1844 C.3       1 <0>         0.0000
     26 C26         5.2356    1.0538    2.7204 C.3       1 <0>         0.0000
     27 C27        -1.7052    0.5205    1.1102 C.3       1 <0>         0.0000
     28 N1          0.3040    1.9432    3.2609 N.2       1 <0>         0.0000
     29 N2          5.4739    2.3924    3.2559 N.pl3     1 <0>         0.0000
     30 O1         -0.2738   -0.6154   -5.8627 O.co2     1 <0>         0.0000
     31 O2         -0.0713    1.3298   -7.0359 O.co2     1 <0>         0.0000
     32 O3         -0.3870    4.0375    3.6092 O.3       1 <0>         0.0000
     33 O4         -0.3648    0.1268    0.8842 O.3       1 <0>         0.0000
     34 H1          3.7882    6.3330    4.8970 H         1 <0>         0.0000
     35 H2          1.4256    5.5907    4.5773 H         1 <0>         0.0000
     36 H3         -0.8135    0.0751   -3.7243 H         1 <0>         0.0000
     37 H4          5.6555    4.8799    4.3172 H         1 <0>         0.0000
     38 H5         -1.8178    0.2064   -1.4388 H         1 <0>         0.0000
     39 H6          2.8288    1.8507    3.0363 H         1 <0>         0.0000
     40 H7          2.0994   -0.0879    0.3236 H         1 <0>         0.0000
     41 H8          4.1620    0.3184   -1.6489 H         1 <0>         0.0000
     42 H9          3.7591   -1.3193   -2.1721 H         1 <0>         0.0000
     43 H10         3.6456    1.2548   -3.8047 H         1 <0>         0.0000
     44 H11         4.2176   -0.3254   -4.3522 H         1 <0>         0.0000
     45 H12         1.9363   -1.1196   -4.6615 H         1 <0>         0.0000
     46 H13        -3.0535    4.4642    4.1651 H         1 <0>         0.0000
     47 H14        -2.8055    4.7605    2.4366 H         1 <0>         0.0000
     48 H15        -3.5983    3.2703    2.9714 H         1 <0>         0.0000
     49 H16         7.1209    3.2820    5.3126 H         1 <0>         0.0000
     50 H17         7.6714    1.6844    4.7938 H         1 <0>         0.0000
     51 H18         8.6371    3.1216    4.3991 H         1 <0>         0.0000
     52 H19         4.0184    1.5984    0.9873 H         1 <0>         0.0000
     53 H20         5.7461    1.4507    0.6388 H         1 <0>         0.0000
     54 H21         4.7616   -0.0028    0.8783 H         1 <0>         0.0000
     55 H22        -1.5358   -0.0752    3.1686 H         1 <0>         0.0000
     56 H23        -2.9248    0.9610    2.8189 H         1 <0>         0.0000
     57 H24         2.3930    0.9060   -6.1403 H         1 <0>         0.0000
     58 H25         1.4771    1.8727   -5.0011 H         1 <0>         0.0000
     59 H26         7.3592    2.3380    2.3936 H         1 <0>         0.0000
     60 H27         6.8392    3.9370    2.8616 H         1 <0>         0.0000
     61 H28         6.1343    0.4591    2.9186 H         1 <0>         0.0000
     62 H29         4.4327    0.5749    3.2882 H         1 <0>         0.0000
     63 H30        -2.4011   -0.2779    0.8101 H         1 <0>         0.0000
     64 H31        -1.9474    1.4198    0.5272 H         1 <0>         0.0000
@<TRIPOS>BOND
     1    1    2 ar
     2    1    4 ar
     3    1   34 1
     4    2    8 ar
     5    2   35 1
     6    3    5 ar
     7    3    9 ar
     8    3   36 1
     9    4   11 ar
    10    4   37 1
    11    5   12 ar
    12    5   38 1
    13    6    8 ar
    14    6   11 ar
    15    6   39 1
    16    7   10 ar
    17    7   12 ar
    18    7   40 1
    19    8   15 1
    20    9   10 ar
    21    9   19 1
    22   10   17 1
    23   11   29 1
    24   12   33 1
    25   13   14 2
    26   13   23 1
    27   13   28 1
    28   14   20 1
    29   14   32 1
    30   15   28 2
    31   15   32 1
    32   16   24 1
    33   16   30 1
    34   16   31 2
    35   17   18 1
    36   17   41 1
    37   17   42 1
    38   18   19 1
    39   18   43 1
    40   18   44 1
    41   19   24 1
    42   19   45 1
    43   20   46 1
    44   20   47 1
    45   20   48 1
    46   21   25 1
    47   21   49 1
    48   21   50 1
    49   21   51 1
    50   22   26 1
    51   22   52 1
    52   22   53 1
    53   22   54 1
    54   23   27 1
    55   23   55 1
    56   23   56 1
    57   24   57 1
    58   24   58 1
    59   25   29 1
    60   25   59 1
    61   25   60 1
    62   26   29 1
    63   26   61 1
    64   26   62 1
    65   27   33 1
    66   27   63 1
    67   27   64 1
