@<TRIPOS>MOLECULE
*****
   42    45     0     0     0
SMALL
NO_CHARGES

@<TRIPOS>ATOM
      1 C1         -0.9835   -0.4094    8.1863 C.ar      1 <0>         0.0000
      2 C2         -1.6370    0.7573    7.7101 C.ar      1 <0>         0.0000
      3 C3         -0.6148   -1.4066    7.3071 C.ar      1 <0>         0.0000
      4 C4         -1.9077    0.9033    6.3653 C.ar      1 <0>         0.0000
      5 C5         -0.5204   -2.2915    4.9790 C.ar      1 <0>         0.0000
      6 C6         -0.7877   -2.1413    3.6376 C.ar      1 <0>         0.0000
      7 C7         -1.8007    0.0127    4.0431 C.ar      1 <0>         0.0000
      8 C8         -0.8794   -1.2837    5.9157 C.ar      1 <0>         0.0000
      9 C9         -1.5371   -0.1065    5.4347 C.ar      1 <0>         0.0000
     10 C10        -1.4326   -0.9710    3.1451 C.ar      1 <0>         0.0000
     11 C11         0.2859    1.8431    0.0426 C.2       1 <0>         0.0000
     12 C12         0.5287   -1.4486    0.6765 C.2       1 <0>         0.0000
     13 C13         0.4879    3.1632    0.0145 C.2       1 <0>         0.0000
     14 C14         0.1051    0.9484   -1.1648 C.3       1 <0>         0.0000
     15 C15         0.1187    0.9960    1.2944 C.3       1 <0>         0.0000
     16 C16        -0.8950   -0.1205   -0.6786 C.3       1 <0>         0.0000
     17 C17        -0.7379   -1.5254   -1.2726 C.3       1 <0>         0.0000
     18 C18        -0.5109   -0.3271    0.8065 C.3       1 <0>         0.0000
     19 C19        -0.3969   -1.6262   -2.7484 C.3       1 <0>         0.0000
     20 C20        -1.7120   -0.8083    1.6681 C.3       1 <0>         0.0000
     21 O1          1.4099   -1.7400    1.4499 O.2       1 <0>         0.0000
     22 O2          0.3380   -2.1292   -0.4926 O.3       1 <0>         0.0000
     23 H1         -0.7748   -0.5127    9.2480 H         1 <0>         0.0000
     24 H2         -1.9231    1.5365    8.4119 H         1 <0>         0.0000
     25 H3         -0.1138   -2.3013    7.6699 H         1 <0>         0.0000
     26 H4         -2.4084    1.7976    6.0006 H         1 <0>         0.0000
     27 H5         -0.0240   -3.1906    5.3369 H         1 <0>         0.0000
     28 H6         -0.4941   -2.9212    2.9415 H         1 <0>         0.0000
     29 H7         -2.3137    0.9053    3.6886 H         1 <0>         0.0000
     30 H8          0.5905    3.7423    0.9298 H         1 <0>         0.0000
     31 H9          0.5682    3.7071   -0.9241 H         1 <0>         0.0000
     32 H10        -0.2284    1.4860   -2.0559 H         1 <0>         0.0000
     33 H11         1.0662    0.4749   -1.4063 H         1 <0>         0.0000
     34 H12         1.0713    0.8012    1.7966 H         1 <0>         0.0000
     35 H13        -0.5228    1.4960    2.0243 H         1 <0>         0.0000
     36 H14        -1.9218    0.2414   -0.7921 H         1 <0>         0.0000
     37 H15        -1.6417   -2.1121   -1.0693 H         1 <0>         0.0000
     38 H16         0.5366   -1.1070   -2.9780 H         1 <0>         0.0000
     39 H17        -1.2006   -1.1797   -3.3436 H         1 <0>         0.0000
     40 H18        -0.2895   -2.6731   -3.0450 H         1 <0>         0.0000
     41 H19        -2.0924   -1.7523    1.2600 H         1 <0>         0.0000
     42 H20        -2.5060   -0.0660    1.5331 H         1 <0>         0.0000
@<TRIPOS>BOND
     1    1    2 ar
     2    1    3 ar
     3    1   23 1
     4    2    4 ar
     5    2   24 1
     6    3    8 ar
     7    3   25 1
     8    4    9 ar
     9    4   26 1
    10    5    6 ar
    11    5    8 ar
    12    5   27 1
    13    6   10 ar
    14    6   28 1
    15    7    9 ar
    16    7   10 ar
    17    7   29 1
    18    8    9 ar
    19   10   20 1
    20   11   13 2
    21   11   14 1
    22   11   15 1
    23   12   18 1
    24   12   21 2
    25   12   22 1
    26   13   30 1
    27   13   31 1
    28   14   16 1
    29   14   32 1
    30   14   33 1
    31   15   18 1
    32   15   34 1
    33   15   35 1
    34   16   17 1
    35   16   18 1
    36   16   36 1
    37   17   19 1
    38   17   22 1
    39   17   37 1
    40   18   20 1
    41   19   38 1
    42   19   39 1
    43   19   40 1
    44   20   41 1
    45   20   42 1
