@<TRIPOS>MOLECULE
*****
   41    43     0     0     0
SMALL
NO_CHARGES

@<TRIPOS>ATOM
      1 C1          9.1544   -0.6557   -1.4861 C.1       1 <0>         0.0000
      2 C2          3.6038    4.0611   -3.0233 C.ar      1 <0>         0.0000
      3 C3          4.0175    4.4801   -1.7533 C.ar      1 <0>         0.0000
      4 C4          3.2522    2.7216   -3.2474 C.ar      1 <0>         0.0000
      5 C5          4.1115    3.5749   -0.6863 C.ar      1 <0>         0.0000
      6 C6          7.1390    2.1494   -0.4662 C.2       1 <0>         0.0000
      7 C7          8.2384    0.2764   -0.9374 C.cat     1 <0>         0.0000
      8 C8          3.3524    1.8093   -2.2000 C.ar      1 <0>         0.0000
      9 C9          3.8009    2.2394   -0.9446 C.ar      1 <0>         0.0000
     10 C10         6.5372    1.1228    0.2236 C.2       1 <0>         0.0000
     11 C11         2.9381    0.3577   -2.1301 C.3       1 <0>         0.0000
     12 C12         3.6001   -0.1375   -0.8286 C.3       1 <0>         0.0000
     13 C13         8.5977    1.2132   -4.5865 C.3       1 <0>         0.0000
     14 C14         7.1400    3.1876   -3.9754 C.3       1 <0>         0.0000
     15 N1          9.8618   -1.4550   -1.9506 N.1       1 <0>         0.0000
     16 N2          8.1819    1.6047   -1.1781 N.pl3     1 <0>         0.0000
     17 N3          7.2319   -0.0269   -0.0854 N.pl3     1 <0>         0.0000
     18 N4          3.8362    1.1201   -0.0411 N.pl3     1 <0>         0.0000
     19 N5          8.4222    2.4637   -3.8157 N.pl3     1 <0>         0.0000
     20 O1          4.9791   -0.2977    1.7018 O.2       1 <0>         0.0000
     21 O2          4.9347    2.2691    1.9392 O.2       1 <0>         0.0000
     22 O3          9.0169    3.9511   -1.8674 O.2       1 <0>         0.0000
     23 O4         10.4694    1.9002   -2.4418 O.2       1 <0>         0.0000
     24 S1          4.9889    1.0529    1.1561 S.o2      1 <0>         0.0000
     25 S2          9.2361    2.6439   -2.4356 S.o2      1 <0>         0.0000
     26 H1          3.5209    4.7840   -3.8297 H         1 <0>         0.0000
     27 H2          4.2472    5.5273   -1.5780 H         1 <0>         0.0000
     28 H3          2.8883    2.4033   -4.2210 H         1 <0>         0.0000
     29 H4          4.3852    3.9111    0.3078 H         1 <0>         0.0000
     30 H5          6.9197    3.2062   -0.4869 H         1 <0>         0.0000
     31 H6          1.8480    0.2872   -2.0573 H         1 <0>         0.0000
     32 H7          3.2508   -0.2339   -2.9939 H         1 <0>         0.0000
     33 H8          2.9869   -0.8205   -0.2439 H         1 <0>         0.0000
     34 H9          4.5567   -0.6271   -1.0492 H         1 <0>         0.0000
     35 H10         9.6058    0.8262   -4.4504 H         1 <0>         0.0000
     36 H11         8.4541    1.4603   -5.6396 H         1 <0>         0.0000
     37 H12         7.8584    0.4630   -4.2849 H         1 <0>         0.0000
     38 H13         7.2030    4.1658   -3.5026 H         1 <0>         0.0000
     39 H14         6.3053    2.6169   -3.5540 H         1 <0>         0.0000
     40 H15         6.9816    3.3250   -5.0461 H         1 <0>         0.0000
     41 H16         7.0428   -0.9392    0.3335 H         1 <0>         0.0000
@<TRIPOS>BOND
     1    1    7 1
     2    1   15 3
     3    2    3 ar
     4    2    4 ar
     5    2   26 1
     6    3    5 ar
     7    3   27 1
     8    4    8 ar
     9    4   28 1
    10    5    9 ar
    11    5   29 1
    12    6   10 2
    13    6   16 1
    14    6   30 1
    15    7   16 1
    16    7   17 2
    17    8    9 ar
    18    8   11 1
    19    9   18 1
    20   10   17 1
    21   10   24 1
    22   11   12 1
    23   11   31 1
    24   11   32 1
    25   12   18 1
    26   12   33 1
    27   12   34 1
    28   13   19 1
    29   13   35 1
    30   13   36 1
    31   13   37 1
    32   14   19 1
    33   14   38 1
    34   14   39 1
    35   14   40 1
    36   16   25 1
    37   17   41 1
    38   18   24 1
    39   19   25 1
    40   20   24 2
    41   21   24 2
    42   22   25 2
    43   23   25 2
