@<TRIPOS>MOLECULE
*****
   37    37     0     0     0
SMALL
NO_CHARGES

@<TRIPOS>ATOM
      1 C1          1.0883    4.3240    2.7567 C.2       1 <0>         0.0000
      2 C2         -0.5175    3.0073    3.0778 C.2       1 <0>         0.0000
      3 C3         -0.2709    1.7545   -0.1652 C.2       1 <0>         0.0000
      4 C4         -1.2315    1.2537   -0.9621 C.2       1 <0>         0.0000
      5 C5         -1.4296    1.7961   -2.3578 C.3       1 <0>         0.0000
      6 C6         -2.1884    0.1523   -0.5728 C.3       1 <0>         0.0000
      7 C7          2.2180    0.8181    3.6390 C.3       1 <0>         0.0000
      8 C8          2.7588   -1.2840    2.4174 C.3       1 <0>         0.0000
      9 C9          0.4362   -0.9368    3.3076 C.3       1 <0>         0.0000
     10 C10         0.0469    1.3334    1.2523 C.3       1 <0>         0.0000
     11 C11         1.2822    0.3834    1.2941 C.3       1 <0>         0.0000
     12 C12         1.6507   -0.2383    2.6696 C.3       1 <0>         0.0000
     13 N1         -0.0088    4.1401    3.5480 N.2       1 <0>         0.0000
     14 N2          1.2824    3.3807    1.8390 N.2       1 <0>         0.0000
     15 N3          0.2417    2.5339    2.0639 N.pl3     1 <0>         0.0000
     16 O1          1.0058   -0.7044    0.4051 O.3       1 <0>         0.0000
     17 H1          1.7591    5.1678    2.8547 H         1 <0>         0.0000
     18 H2         -1.4053    2.5023    3.4362 H         1 <0>         0.0000
     19 H3          0.3690    2.5500   -0.5433 H         1 <0>         0.0000
     20 H4         -1.3211    1.0013   -3.1066 H         1 <0>         0.0000
     21 H5         -2.4438    2.1988   -2.4728 H         1 <0>         0.0000
     22 H6         -0.7170    2.5908   -2.5929 H         1 <0>         0.0000
     23 H7         -3.2221    0.5168   -0.6190 H         1 <0>         0.0000
     24 H8         -2.0066   -0.2541    0.4225 H         1 <0>         0.0000
     25 H9         -2.1184   -0.6800   -1.2835 H         1 <0>         0.0000
     26 H10         1.4632    1.5191    3.9991 H         1 <0>         0.0000
     27 H11         3.0203    1.3986    3.1734 H         1 <0>         0.0000
     28 H12         2.6358    0.3134    4.5169 H         1 <0>         0.0000
     29 H13         2.4075   -2.0968    1.7796 H         1 <0>         0.0000
     30 H14         3.0941   -1.7061    3.3711 H         1 <0>         0.0000
     31 H15         3.6271   -0.8239    1.9314 H         1 <0>         0.0000
     32 H16        -0.0221   -1.6450    2.6108 H         1 <0>         0.0000
     33 H17         0.7474   -1.4913    4.1992 H         1 <0>         0.0000
     34 H18        -0.3277   -0.2199    3.6294 H         1 <0>         0.0000
     35 H19        -0.7995    0.8077    1.6934 H         1 <0>         0.0000
     36 H20         2.1505    0.9534    0.9354 H         1 <0>         0.0000
     37 H21         0.7796   -0.3209   -0.4590 H         1 <0>         0.0000
@<TRIPOS>BOND
     1    1   13 1
     2    1   14 2
     3    1   17 1
     4    2   13 2
     5    2   15 1
     6    2   18 1
     7    3    4 2
     8    3   10 1
     9    3   19 1
    10    4    5 1
    11    4    6 1
    12    5   20 1
    13    5   21 1
    14    5   22 1
    15    6   23 1
    16    6   24 1
    17    6   25 1
    18    7   12 1
    19    7   26 1
    20    7   27 1
    21    7   28 1
    22    8   12 1
    23    8   29 1
    24    8   30 1
    25    8   31 1
    26    9   12 1
    27    9   32 1
    28    9   33 1
    29    9   34 1
    30   10   11 1
    31   10   15 1
    32   10   35 1
    33   11   12 1
    34   11   16 1
    35   11   36 1
    36   14   15 1
    37   16   37 1
