@<TRIPOS>MOLECULE
*****
   42    45     0     0     0
SMALL
NO_CHARGES

@<TRIPOS>ATOM
      1 C1         -0.5892   -2.7985    7.4778 C.ar      1 <0>         0.0000
      2 C2         -0.1634   -3.7852    6.5495 C.ar      1 <0>         0.0000
      3 C3         -1.1448   -1.6180    7.0310 C.ar      1 <0>         0.0000
      4 C4         -0.3042   -3.5731    5.1944 C.ar      1 <0>         0.0000
      5 C5         -1.8687   -0.1676    5.1380 C.ar      1 <0>         0.0000
      6 C6         -2.0001    0.0376    3.7818 C.ar      1 <0>         0.0000
      7 C7         -1.0333   -2.1231    3.3127 C.ar      1 <0>         0.0000
      8 C8         -1.3005   -1.3697    5.6392 C.ar      1 <0>         0.0000
      9 C9         -0.8755   -2.3664    4.7025 C.ar      1 <0>         0.0000
     10 C10        -1.5746   -0.9427    2.8412 C.ar      1 <0>         0.0000
     11 C11         0.5065    2.0483    0.1619 C.2       1 <0>         0.0000
     12 C12         0.5946   -1.2848    0.5369 C.2       1 <0>         0.0000
     13 C13         0.7607    3.3557    0.2641 C.2       1 <0>         0.0000
     14 C14         0.4167    1.2617   -1.1283 C.3       1 <0>         0.0000
     15 C15         0.1807    1.1137    1.3169 C.3       1 <0>         0.0000
     16 C16        -0.6565    0.1942   -0.8318 C.3       1 <0>         0.0000
     17 C17        -0.4786   -1.1626   -1.5233 C.3       1 <0>         0.0000
     18 C18        -0.4262   -0.1453    0.6602 C.3       1 <0>         0.0000
     19 C19         0.0004   -1.1558   -2.9637 C.3       1 <0>         0.0000
     20 C20        -1.7113   -0.6706    1.3592 C.3       1 <0>         0.0000
     21 O1          1.3865   -1.6688    1.3647 O.2       1 <0>         0.0000
     22 O2          0.5013   -1.8624   -0.6983 O.3       1 <0>         0.0000
     23 H1         -0.4725   -2.9780    8.5435 H         1 <0>         0.0000
     24 H2          0.2781   -4.7092    6.9138 H         1 <0>         0.0000
     25 H3         -1.4694   -0.8600    7.7406 H         1 <0>         0.0000
     26 H4          0.0284   -4.3246    4.4822 H         1 <0>         0.0000
     27 H5         -2.2054    0.5911    5.8412 H         1 <0>         0.0000
     28 H6         -2.4489    0.9598    3.4184 H         1 <0>         0.0000
     29 H7         -0.6993   -2.8863    2.6146 H         1 <0>         0.0000
     30 H8          0.7918    3.8551    1.2302 H         1 <0>         0.0000
     31 H9          0.9560    3.9681   -0.6133 H         1 <0>         0.0000
     32 H10         0.1870    1.8825   -1.9979 H         1 <0>         0.0000
     33 H11         1.3823    0.7742   -1.3178 H         1 <0>         0.0000
     34 H12         1.0662    0.8479    1.9025 H         1 <0>         0.0000
     35 H13        -0.5241    1.5810    2.0089 H         1 <0>         0.0000
     36 H14        -1.6567    0.6003   -1.0128 H         1 <0>         0.0000
     37 H15        -1.4125   -1.7333   -1.4555 H         1 <0>         0.0000
     38 H16         0.9630   -0.6483   -3.0613 H         1 <0>         0.0000
     39 H17        -0.7322   -0.6396   -3.5932 H         1 <0>         0.0000
     40 H18         0.1124   -2.1786   -3.3338 H         1 <0>         0.0000
     41 H19        -2.0535   -1.5773    0.8475 H         1 <0>         0.0000
     42 H20        -2.4856    0.0884    1.2011 H         1 <0>         0.0000
@<TRIPOS>BOND
     1    1    2 ar
     2    1    3 ar
     3    1   23 1
     4    2    4 ar
     5    2   24 1
     6    3    8 ar
     7    3   25 1
     8    4    9 ar
     9    4   26 1
    10    5    6 ar
    11    5    8 ar
    12    5   27 1
    13    6   10 ar
    14    6   28 1
    15    7    9 ar
    16    7   10 ar
    17    7   29 1
    18    8    9 ar
    19   10   20 1
    20   11   13 2
    21   11   14 1
    22   11   15 1
    23   12   18 1
    24   12   21 2
    25   12   22 1
    26   13   30 1
    27   13   31 1
    28   14   16 1
    29   14   32 1
    30   14   33 1
    31   15   18 1
    32   15   34 1
    33   15   35 1
    34   16   17 1
    35   16   18 1
    36   16   36 1
    37   17   19 1
    38   17   22 1
    39   17   37 1
    40   18   20 1
    41   19   38 1
    42   19   39 1
    43   19   40 1
    44   20   41 1
    45   20   42 1
