@<TRIPOS>MOLECULE
*****
   51    54     0     0     0
SMALL
NO_CHARGES

@<TRIPOS>ATOM
      1 C1         -7.5995   -5.9724    8.3646 C.ar      1 <0>         0.0000
      2 C2         -2.3145   -2.1873   -2.5883 C.ar      1 <0>         0.0000
      3 C3         -6.9556   -4.7519    8.1210 C.ar      1 <0>         0.0000
      4 C4         -7.7225   -6.8865    7.3176 C.ar      1 <0>         0.0000
      5 C5         -0.9212   -2.0554   -2.5998 C.ar      1 <0>         0.0000
      6 C6         -2.9262   -2.9671   -1.6042 C.ar      1 <0>         0.0000
      7 C7         -6.4501   -4.4536    6.8579 C.ar      1 <0>         0.0000
      8 C8         -7.2044   -6.6005    6.0493 C.ar      1 <0>         0.0000
      9 C9         -0.1443   -2.7149   -1.6436 C.ar      1 <0>         0.0000
     10 C10        -2.1683   -3.6332   -0.6272 C.ar      1 <0>         0.0000
     11 C11        -6.5590   -5.3755    5.7947 C.ar      1 <0>         0.0000
     12 C12        -0.7626   -3.5070   -0.6743 C.ar      1 <0>         0.0000
     13 C13        -1.9306   -5.2103    1.1898 C.2       1 <0>         0.0000
     14 C14        -2.7459   -4.4255    0.4669 C.2       1 <0>         0.0000
     15 C15        -4.6558   -4.5951    4.4672 C.3       1 <0>         0.0000
     16 C16        -6.3744   -5.9254    3.4098 C.3       1 <0>         0.0000
     17 C17        -4.3392   -3.9531    3.1235 C.3       1 <0>         0.0000
     18 C18        -6.0350   -5.2673    2.0747 C.3       1 <0>         0.0000
     19 C19        -0.4592   -5.3312    0.8746 C.3       1 <0>         0.0000
     20 C20        -0.2078   -6.4902   -0.1029 C.3       1 <0>         0.0000
     21 C21         0.3706   -5.4901    2.1480 C.3       1 <0>         0.0000
     22 C22        -4.2357   -4.3392    0.7352 C.3       1 <0>         0.0000
     23 N1         -6.0591   -5.0288    4.5178 N.pl3     1 <0>         0.0000
     24 N2         -4.6250   -4.8858    2.0308 N.3       1 <0>         0.0000
     25 O1          0.0339   -4.1009    0.2647 O.3       1 <0>         0.0000
     26 H1         -7.9993   -6.2000    9.3488 H         1 <0>         0.0000
     27 H2         -2.9189   -1.6838   -3.3377 H         1 <0>         0.0000
     28 H3         -6.8615   -4.0180    8.9178 H         1 <0>         0.0000
     29 H4         -8.2162   -7.8411    7.4842 H         1 <0>         0.0000
     30 H5         -0.4362   -1.4456   -3.3576 H         1 <0>         0.0000
     31 H6         -4.0085   -3.0580   -1.5974 H         1 <0>         0.0000
     32 H7         -5.9918   -3.4847    6.6838 H         1 <0>         0.0000
     33 H8         -7.2978   -7.3457    5.2676 H         1 <0>         0.0000
     34 H9          0.9387   -2.6309   -1.6363 H         1 <0>         0.0000
     35 H10        -2.3323   -5.8131    1.9992 H         1 <0>         0.0000
     36 H11        -3.9819   -5.4544    4.6277 H         1 <0>         0.0000
     37 H12        -4.4653   -3.8721    5.2606 H         1 <0>         0.0000
     38 H13        -7.4451   -6.1461    3.4262 H         1 <0>         0.0000
     39 H14        -5.8248   -6.8803    3.4868 H         1 <0>         0.0000
     40 H15        -4.9306   -3.0243    3.0156 H         1 <0>         0.0000
     41 H16        -3.2804   -3.6826    3.0933 H         1 <0>         0.0000
     42 H17        -6.2333   -5.9834    1.2701 H         1 <0>         0.0000
     43 H18        -6.6993   -4.3952    1.9254 H         1 <0>         0.0000
     44 H19         0.8610   -6.5744   -0.3259 H         1 <0>         0.0000
     45 H20        -0.7518   -6.3253   -1.0374 H         1 <0>         0.0000
     46 H21        -0.5533   -7.4343    0.3307 H         1 <0>         0.0000
     47 H22         1.4363   -5.5225    1.9032 H         1 <0>         0.0000
     48 H23         0.1022   -6.4185    2.6612 H         1 <0>         0.0000
     49 H24         0.1933   -4.6504    2.8257 H         1 <0>         0.0000
     50 H25        -4.7603   -4.9033   -0.0466 H         1 <0>         0.0000
     51 H26        -4.5673   -3.2901    0.6275 H         1 <0>         0.0000
@<TRIPOS>BOND
     1    1    4 ar
     2    1    3 ar
     3    1   26 1
     4    2    5 ar
     5    2    6 ar
     6    2   27 1
     7    3    7 ar
     8    3   28 1
     9    4    8 ar
    10    4   29 1
    11    5    9 ar
    12    5   30 1
    13    6   10 ar
    14    6   31 1
    15    7   11 ar
    16    7   32 1
    17    8   11 ar
    18    8   33 1
    19    9   12 ar
    20    9   34 1
    21   10   12 ar
    22   10   14 1
    23   11   23 1
    24   12   25 1
    25   13   14 2
    26   13   19 1
    27   13   35 1
    28   14   22 1
    29   15   17 1
    30   15   23 1
    31   15   36 1
    32   15   37 1
    33   16   18 1
    34   16   23 1
    35   16   38 1
    36   16   39 1
    37   17   24 1
    38   17   40 1
    39   17   41 1
    40   18   24 1
    41   18   42 1
    42   18   43 1
    43   19   20 1
    44   19   21 1
    45   19   25 1
    46   20   44 1
    47   20   45 1
    48   20   46 1
    49   21   47 1
    50   21   48 1
    51   21   49 1
    52   22   24 1
    53   22   50 1
    54   22   51 1
