@<TRIPOS>MOLECULE
*****
   40    42     0     0     0
SMALL
NO_CHARGES

@<TRIPOS>ATOM
      1 C1          9.3031    1.7538   -0.1370 C.1       1 <0>         0.0000
      2 C2          6.8058   -3.2038    3.5807 C.ar      1 <0>         0.0000
      3 C3          5.8811   -3.1257    2.5341 C.ar      1 <0>         0.0000
      4 C4          7.0402   -2.0876    4.3977 C.ar      1 <0>         0.0000
      5 C5          5.1813   -1.9400    2.2695 C.ar      1 <0>         0.0000
      6 C6          6.0994    0.1572   -0.5390 C.2       1 <0>         0.0000
      7 C7          7.9590    1.2862   -0.0606 C.2       1 <0>         0.0000
      8 C8          6.3615   -0.9015    4.1385 C.ar      1 <0>         0.0000
      9 C9          5.4529   -0.8326    3.0739 C.ar      1 <0>         0.0000
     10 C10         5.9195    1.0059    0.5321 C.2       1 <0>         0.0000
     11 C11         6.3704    0.4104    4.8896 C.3       1 <0>         0.0000
     12 C12         5.6756    1.3830    3.9139 C.3       1 <0>         0.0000
     13 C13         6.6354    0.9866   -4.0212 C.3       1 <0>         0.0000
     14 C14         8.9210    1.8419   -3.5082 C.3       1 <0>         0.0000
     15 N1         10.3889    2.1681   -0.2077 N.1       1 <0>         0.0000
     16 N2          7.0671    1.6935    0.8276 N.2       1 <0>         0.0000
     17 N3          7.4099    0.3397   -0.9245 N.pl3     1 <0>         0.0000
     18 N4          4.8838    0.4799    3.0086 N.pl3     1 <0>         0.0000
     19 N5          8.0032    0.6881   -3.5609 N.pl3     1 <0>         0.0000
     20 O1          4.1267    2.5293    1.7637 O.2       1 <0>         0.0000
     21 O2          3.4901    0.2136    0.8874 O.2       1 <0>         0.0000
     22 O3          9.5308   -0.6091   -2.0227 O.2       1 <0>         0.0000
     23 O4          7.2147   -1.5204   -2.6359 O.2       1 <0>         0.0000
     24 S1          4.4377    1.1269    1.5228 S.o2      1 <0>         0.0000
     25 S2          8.1376   -0.4357   -2.3672 S.o2      1 <0>         0.0000
     26 H1          7.3372   -4.1329    3.7662 H         1 <0>         0.0000
     27 H2          5.6930   -3.9982    1.9141 H         1 <0>         0.0000
     28 H3          7.7470   -2.1473    5.2220 H         1 <0>         0.0000
     29 H4          4.4428   -1.8898    1.4780 H         1 <0>         0.0000
     30 H5          5.4436   -0.5478   -1.0260 H         1 <0>         0.0000
     31 H6          5.7977    0.3149    5.8193 H         1 <0>         0.0000
     32 H7          7.3753    0.7528    5.1505 H         1 <0>         0.0000
     33 H8          4.9988    2.0858    4.3970 H         1 <0>         0.0000
     34 H9          6.4130    1.9404    3.3308 H         1 <0>         0.0000
     35 H10         6.0749    0.0604   -4.1384 H         1 <0>         0.0000
     36 H11         6.7183    1.4714   -4.9960 H         1 <0>         0.0000
     37 H12         6.1121    1.6596   -3.3296 H         1 <0>         0.0000
     38 H13         9.9019    1.5225   -3.1618 H         1 <0>         0.0000
     39 H14         8.5371    2.6346   -2.8548 H         1 <0>         0.0000
     40 H15         9.0130    2.2291   -4.5253 H         1 <0>         0.0000
@<TRIPOS>BOND
     1    1    7 1
     2    1   15 3
     3    2    3 ar
     4    2    4 ar
     5    2   26 1
     6    3    5 ar
     7    3   27 1
     8    4    8 ar
     9    4   28 1
    10    5    9 ar
    11    5   29 1
    12    6   10 2
    13    6   17 1
    14    6   30 1
    15    7   16 2
    16    7   17 1
    17    8    9 ar
    18    8   11 1
    19    9   18 1
    20   10   16 1
    21   10   24 1
    22   11   12 1
    23   11   31 1
    24   11   32 1
    25   12   18 1
    26   12   33 1
    27   12   34 1
    28   13   19 1
    29   13   35 1
    30   13   36 1
    31   13   37 1
    32   14   19 1
    33   14   38 1
    34   14   39 1
    35   14   40 1
    36   17   25 1
    37   18   24 1
    38   19   25 1
    39   20   24 2
    40   21   24 2
    41   22   25 2
    42   23   25 2
