@<TRIPOS>MOLECULE
*****
   41    43     0     0     0
SMALL
NO_CHARGES

@<TRIPOS>ATOM
      1 C1        -12.8689    4.5425   -1.0134 C.ar      1 <0>         0.0000
      2 C2        -13.0249    3.1805   -0.7880 C.ar      1 <0>         0.0000
      3 C3        -11.6822    5.0161   -1.5655 C.ar      1 <0>         0.0000
      4 C4         -9.4410    4.5753   -2.4511 C.ar      1 <0>         0.0000
      5 C5         -4.2541   -1.2638   -2.5434 C.ar      1 <0>         0.0000
      6 C6        -11.9945    2.2956   -1.1149 C.ar      1 <0>         0.0000
      7 C7         -5.0882   -0.1815   -2.8232 C.ar      1 <0>         0.0000
      8 C8         -8.4369    3.6708   -2.7649 C.ar      1 <0>         0.0000
      9 C9         -4.5035   -0.8444   -0.1772 C.ar      1 <0>         0.0000
     10 C10       -10.6459    4.1258   -1.8943 C.ar      1 <0>         0.0000
     11 C11        -3.9617   -1.5953   -1.2204 C.ar      1 <0>         0.0000
     12 C12       -10.7974    2.7416   -1.6683 C.ar      1 <0>         0.0000
     13 C13        -5.6300    0.5694   -1.7800 C.ar      1 <0>         0.0000
     14 C14        -5.3376    0.2380   -0.4570 C.ar      1 <0>         0.0000
     15 C15        -8.6769    2.3363   -2.5077 C.ar      1 <0>         0.0000
     16 C16        -3.8605   -4.0270   -0.7806 C.2       1 <0>         0.0000
     17 C17        -3.0683   -2.7520   -0.9233 C.3       1 <0>         0.0000
     18 C18        -7.6249    1.3280   -2.8293 C.3       1 <0>         0.0000
     19 C19        -7.5459    0.2876    1.2124 C.3       1 <0>         0.0000
     20 N1         -9.8246    1.8615   -1.9718 N.ar      1 <0>         0.0000
     21 O1         -5.0832   -4.0803   -0.8213 O.2       1 <0>         0.0000
     22 O2         -3.0756   -5.1129   -0.5678 O.3       1 <0>         0.0000
     23 O3         -6.4458    1.6253   -2.0920 O.3       1 <0>         0.0000
     24 F1         -7.3282   -1.0100    1.5347 F         1 <0>         0.0000
     25 F2         -8.3725    0.3124    0.1402 F         1 <0>         0.0000
     26 F3         -8.2243    0.8445    2.2461 F         1 <0>         0.0000
     27 S1         -6.0126    1.1764    0.9065 S.3       1 <0>         0.0000
     28 H1        -13.6675    5.2333   -0.7608 H         1 <0>         0.0000
     29 H2        -13.9475    2.8026   -0.3571 H         1 <0>         0.0000
     30 H3        -11.5703    6.0842   -1.7384 H         1 <0>         0.0000
     31 H4         -9.2785    5.6335   -2.6431 H         1 <0>         0.0000
     32 H5         -3.8354   -1.8424   -3.3629 H         1 <0>         0.0000
     33 H6        -12.1414    1.2333   -0.9280 H         1 <0>         0.0000
     34 H7         -5.3108    0.0710   -3.8567 H         1 <0>         0.0000
     35 H8         -7.5017    4.0113   -3.1956 H         1 <0>         0.0000
     36 H9         -4.2687   -1.1124    0.8507 H         1 <0>         0.0000
     37 H10        -2.4699   -2.5854   -0.0190 H         1 <0>         0.0000
     38 H11        -2.3349   -2.9021   -1.7262 H         1 <0>         0.0000
     39 H12        -7.9531    0.3118   -2.5726 H         1 <0>         0.0000
     40 H13        -7.3834    1.3357   -3.9006 H         1 <0>         0.0000
     41 H14        -2.1104   -4.9376   -0.5578 H         1 <0>         0.0000
@<TRIPOS>BOND
     1    1    2 ar
     2    1    3 ar
     3    1   28 1
     4    2    6 ar
     5    2   29 1
     6    3   10 ar
     7    3   30 1
     8    4    8 ar
     9    4   10 ar
    10    4   31 1
    11    5    7 ar
    12    5   11 ar
    13    5   32 1
    14    6   12 ar
    15    6   33 1
    16    7   13 ar
    17    7   34 1
    18    8   15 ar
    19    8   35 1
    20    9   11 ar
    21    9   14 ar
    22    9   36 1
    23   10   12 ar
    24   11   17 1
    25   12   20 ar
    26   13   14 ar
    27   13   23 1
    28   14   27 1
    29   15   18 1
    30   15   20 ar
    31   16   17 1
    32   16   21 2
    33   16   22 1
    34   17   37 1
    35   17   38 1
    36   18   23 1
    37   18   39 1
    38   18   40 1
    39   19   24 1
    40   19   25 1
    41   19   26 1
    42   19   27 1
    43   22   41 1
