@<TRIPOS>MOLECULE
*****
   49    51     0     0     0
SMALL
NO_CHARGES

@<TRIPOS>ATOM
      1 C1         -0.5363   -0.1928   -0.1308 C.1       1 <0>         0.0000
      2 C2          3.6450   -4.7429    4.9320 C.ar      1 <0>         0.0000
      3 C3          2.6616   -4.7447    3.9399 C.ar      1 <0>         0.0000
      4 C4         -0.3211   -1.0358    2.1651 C.ar      1 <0>         0.0000
      5 C5         -0.1023   -2.5727    0.2823 C.ar      1 <0>         0.0000
      6 C6         -0.3125   -1.2793    0.7823 C.ar      1 <0>         0.0000
      7 C7          1.0246   -4.0979    5.6187 C.ar      1 <0>         0.0000
      8 C8         -0.0990   -2.0764    3.0712 C.ar      1 <0>         0.0000
      9 C9          3.3533   -4.4346    6.2648 C.ar      1 <0>         0.0000
     10 C10         1.3616   -4.4196    4.3031 C.ar      1 <0>         0.0000
     11 C11         0.1350   -3.3581    2.5610 C.ar      1 <0>         0.0000
     12 C12         0.1161   -3.6153    1.1797 C.ar      1 <0>         0.0000
     13 C13         2.0245   -4.1157    6.6058 C.ar      1 <0>         0.0000
     14 C14        -0.4071   -3.7740    5.9376 C.2       1 <0>         0.0000
     15 C15        -0.1015   -1.7798    4.5538 C.3       1 <0>         0.0000
     16 C16         5.0822   -7.5269    7.1664 C.3       1 <0>         0.0000
     17 C17         3.6340   -7.7858    9.2201 C.3       1 <0>         0.0000
     18 C18         1.4925   -2.4748    8.2404 C.3       1 <0>         0.0000
     19 C19         4.2313   -5.4735    8.4342 C.3       1 <0>         0.0000
     20 C20         4.4607   -4.4627    7.2990 C.3       1 <0>         0.0000
     21 C21         3.9388   -6.9177    7.9912 C.3       1 <0>         0.0000
     22 N1         -0.7142    0.6922   -0.8677 N.1       1 <0>         0.0000
     23 O1         -1.0959   -4.4246    6.6845 O.2       1 <0>         0.0000
     24 O2          0.3306   -4.4809    3.3558 O.3       1 <0>         0.0000
     25 O3         -0.9354   -2.6756    5.3168 O.3       1 <0>         0.0000
     26 O4          0.3216   -4.8765    0.7109 O.3       1 <0>         0.0000
     27 O5          4.6022   -3.1242    7.8152 O.3       1 <0>         0.0000
     28 O6          1.6980   -3.8584    7.9103 O.3       1 <0>         0.0000
     29 H1          4.6691   -4.9848    4.6607 H         1 <0>         0.0000
     30 H2          2.8951   -4.9929    2.9089 H         1 <0>         0.0000
     31 H3         -0.5124   -0.0311    2.5292 H         1 <0>         0.0000
     32 H4         -0.1070   -2.7738   -0.7837 H         1 <0>         0.0000
     33 H5          0.9157   -1.7750    4.9549 H         1 <0>         0.0000
     34 H6         -0.5312   -0.7906    4.7198 H         1 <0>         0.0000
     35 H7          6.0241   -7.5079    7.7291 H         1 <0>         0.0000
     36 H8          4.8664   -8.5711    6.9161 H         1 <0>         0.0000
     37 H9          5.2437   -6.9937    6.2243 H         1 <0>         0.0000
     38 H10         4.5033   -7.8411    9.8871 H         1 <0>         0.0000
     39 H11         2.7945   -7.3793    9.7940 H         1 <0>         0.0000
     40 H12         3.3759   -8.8086    8.9249 H         1 <0>         0.0000
     41 H13         1.2565   -2.4531    9.3052 H         1 <0>         0.0000
     42 H14         0.6458   -2.0560    7.6837 H         1 <0>         0.0000
     43 H15         2.4056   -1.9055    8.0443 H         1 <0>         0.0000
     44 H16         3.4033   -5.1078    9.0461 H         1 <0>         0.0000
     45 H17         5.1333   -5.4752    9.0659 H         1 <0>         0.0000
     46 H18         5.3862   -4.7279    6.7716 H         1 <0>         0.0000
     47 H19         3.0380   -6.8995    7.3644 H         1 <0>         0.0000
     48 H20         0.3877   -5.4670    1.4845 H         1 <0>         0.0000
     49 H21         5.1674   -3.1737    8.6033 H         1 <0>         0.0000
@<TRIPOS>BOND
     1    1    6 1
     2    1   22 3
     3    2    3 ar
     4    2    9 ar
     5    2   29 1
     6    3   10 ar
     7    3   30 1
     8    4    6 ar
     9    4    8 ar
    10    4   31 1
    11    5    6 ar
    12    5   12 ar
    13    5   32 1
    14    7   10 ar
    15    7   13 ar
    16    7   14 1
    17    8   11 ar
    18    8   15 1
    19    9   13 ar
    20    9   20 1
    21   10   24 1
    22   11   12 ar
    23   11   24 1
    24   12   26 1
    25   13   28 1
    26   14   23 2
    27   14   25 1
    28   15   25 1
    29   15   33 1
    30   15   34 1
    31   16   21 1
    32   16   35 1
    33   16   36 1
    34   16   37 1
    35   17   21 1
    36   17   38 1
    37   17   39 1
    38   17   40 1
    39   18   28 1
    40   18   41 1
    41   18   42 1
    42   18   43 1
    43   19   20 1
    44   19   21 1
    45   19   44 1
    46   19   45 1
    47   20   27 1
    48   20   46 1
    49   21   47 1
    50   26   48 1
    51   27   49 1
