@<TRIPOS>MOLECULE
*****
   25    25     0     0     0
SMALL
NO_CHARGES

@<TRIPOS>ATOM
      1 C1          0.8230    0.9101    3.0657 C.2       1 <0>         0.0000
      2 C2          0.4596    0.0854    2.0596 C.2       1 <0>         0.0000
      3 C3          2.7807   -0.2274    1.9704 C.2       1 <0>         0.0000
      4 C4         -1.2205   -1.6930    1.4840 C.2       1 <0>         0.0000
      5 C5         -0.5386   -3.7128    0.4198 C.3       1 <0>         0.0000
      6 C6          5.5605   -1.3645   -0.3640 C.3       1 <0>         0.0000
      7 C7         -0.9269   -0.1972    1.5518 C.3       1 <0>         0.0000
      8 N1          3.9696   -0.6577    1.6388 N.2       1 <0>         0.0000
      9 N2          1.5532   -0.5323    1.4560 N.pl3     1 <0>         0.0000
     10 O1         -2.0082   -2.2855    2.1887 O.2       1 <0>         0.0000
     11 O2          4.4382   -3.1519    1.2468 O.2       1 <0>         0.0000
     12 O3          2.9578   -1.9326   -0.3975 O.2       1 <0>         0.0000
     13 O4         -0.4593   -2.2700    0.5269 O.3       1 <0>         0.0000
     14 S1          2.5696    0.9331    3.2874 S.3       1 <0>         0.0000
     15 S2          4.1091   -1.9069    0.5443 S.o2      1 <0>         0.0000
     16 H1          0.1746    1.5033    3.6948 H         1 <0>         0.0000
     17 H2          0.2150   -3.9839   -0.3176 H         1 <0>         0.0000
     18 H3         -1.5379   -4.0062    0.0919 H         1 <0>         0.0000
     19 H4         -0.3182   -4.1706    1.3857 H         1 <0>         0.0000
     20 H5          5.7888   -2.1518   -1.0844 H         1 <0>         0.0000
     21 H6          5.3272   -0.4269   -0.8684 H         1 <0>         0.0000
     22 H7          6.3761   -1.2405    0.3483 H         1 <0>         0.0000
     23 H8         -1.0419    0.2202    0.5444 H         1 <0>         0.0000
     24 H9         -1.6597    0.2660    2.2111 H         1 <0>         0.0000
     25 H10         1.4821   -1.1764    0.6644 H         1 <0>         0.0000
@<TRIPOS>BOND
     1    1    2 2
     2    1   14 1
     3    1   16 1
     4    2    7 1
     5    2    9 1
     6    3    8 2
     7    3    9 1
     8    3   14 1
     9    4    7 1
    10    4   10 2
    11    4   13 1
    12    5   13 1
    13    5   17 1
    14    5   18 1
    15    5   19 1
    16    6   15 1
    17    6   20 1
    18    6   21 1
    19    6   22 1
    20    7   23 1
    21    7   24 1
    22    8   15 1
    23    9   25 1
    24   11   15 2
    25   12   15 2
