@<TRIPOS>MOLECULE
*****
   35    36     0     0     0
SMALL
NO_CHARGES

@<TRIPOS>ATOM
      1 C1          9.6546   -2.0971   -0.9752 C.2       1 <0>         0.0000
      2 C2          8.1929   -0.8567    0.3788 C.2       1 <0>         0.0000
      3 C3         10.5703   -3.0971   -1.6186 C.2       1 <0>         0.0000
      4 C4         13.3648   -3.7578   -3.1481 C.3       1 <0>         0.0000
      5 C5         13.0965   -2.8474   -4.3279 C.3       1 <0>         0.0000
      6 C6         11.9482   -3.5046   -3.6009 C.3       1 <0>         0.0000
      7 C7          2.1469    0.5598   -2.7819 C.3       1 <0>         0.0000
      8 C8          3.4905    0.9092   -2.1330 C.3       1 <0>         0.0000
      9 C9          3.8450   -0.0177   -0.9639 C.3       1 <0>         0.0000
     10 C10         5.1952    0.3302   -0.3205 C.3       1 <0>         0.0000
     11 C11         5.5185   -0.6024    0.8436 C.3       1 <0>         0.0000
     12 N1          9.3385   -0.9434   -1.5110 N.2       1 <0>         0.0000
     13 N2          8.4945   -0.2138   -0.7166 N.2       1 <0>         0.0000
     14 N3         11.1032   -2.6693   -2.7935 N.am      1 <0>         0.0000
     15 O1         10.7863   -4.1830   -1.0853 O.2       1 <0>         0.0000
     16 O2          7.2627   -1.1827    2.8332 O.2       1 <0>         0.0000
     17 S1          8.9380   -2.4184    0.5753 S.3       1 <0>         0.0000
     18 S2          7.1172   -0.1975    1.6905 S.o       1 <0>         0.0000
     19 H1         13.7769   -4.7449   -3.3303 H         1 <0>         0.0000
     20 H2         13.6676   -3.2982   -2.2135 H         1 <0>         0.0000
     21 H3         13.2366   -1.7805   -4.1792 H         1 <0>         0.0000
     22 H4         13.3268   -3.2018   -5.3278 H         1 <0>         0.0000
     23 H5         11.4345   -4.3246   -4.0979 H         1 <0>         0.0000
     24 H6          2.1522   -0.4628   -3.1763 H         1 <0>         0.0000
     25 H7          1.3271    0.6313   -2.0578 H         1 <0>         0.0000
     26 H8          1.9182    1.2362   -3.6121 H         1 <0>         0.0000
     27 H9          3.4681    1.9474   -1.7771 H         1 <0>         0.0000
     28 H10         4.2873    0.8607   -2.8862 H         1 <0>         0.0000
     29 H11         3.8673   -1.0569   -1.3184 H         1 <0>         0.0000
     30 H12         3.0516    0.0319   -0.2061 H         1 <0>         0.0000
     31 H13         5.1742    1.3674    0.0361 H         1 <0>         0.0000
     32 H14         5.9865    0.2758   -1.0747 H         1 <0>         0.0000
     33 H15         5.5748   -1.6557    0.5524 H         1 <0>         0.0000
     34 H16         4.7923   -0.5111    1.6584 H         1 <0>         0.0000
     35 H17        10.7745   -1.7793   -3.1537 H         1 <0>         0.0000
@<TRIPOS>BOND
     1    1    3 1
     2    1   12 2
     3    1   17 1
     4    2   13 2
     5    2   17 1
     6    2   18 1
     7    3   14 am
     8    3   15 2
     9    4    5 1
    10    4    6 1
    11    4   19 1
    12    4   20 1
    13    5    6 1
    14    5   21 1
    15    5   22 1
    16    6   14 1
    17    6   23 1
    18    7    8 1
    19    7   24 1
    20    7   25 1
    21    7   26 1
    22    8    9 1
    23    8   27 1
    24    8   28 1
    25    9   10 1
    26    9   29 1
    27    9   30 1
    28   10   11 1
    29   10   31 1
    30   10   32 1
    31   11   18 1
    32   11   33 1
    33   11   34 1
    34   12   13 1
    35   14   35 1
    36   16   18 2
