@<TRIPOS>MOLECULE
*****
   42    45     0     0     0
SMALL
NO_CHARGES

@<TRIPOS>ATOM
      1 C1         -0.8462   -0.9882    2.3326 C.1       1 <0>         0.0000
      2 C2         -0.3229    2.6046   -2.3334 C.ar      1 <0>         0.0000
      3 C3          0.2750    1.3307   -2.1834 C.ar      1 <0>         0.0000
      4 C4         -0.5569    3.4594   -1.2507 C.ar      1 <0>         0.0000
      5 C5          0.4879    1.7555    0.1441 C.ar      1 <0>         0.0000
      6 C6          0.6732    0.8765   -0.9263 C.ar      1 <0>         0.0000
      7 C7          0.8288    1.5578    1.5142 C.2       1 <0>         0.0000
      8 C8         -0.1417    3.0112    0.0088 C.ar      1 <0>         0.0000
      9 C9          0.3823    2.6595    2.2062 C.2       1 <0>         0.0000
     10 C10        -1.7202   -1.1811   -1.6324 C.2       1 <0>         0.0000
     11 C11         1.5494    0.2958    1.8819 C.3       1 <0>         0.0000
     12 C12         0.8145   -1.6416   -1.4588 C.3       1 <0>         0.0000
     13 C13        -0.7721   -2.3595    0.3739 C.3       1 <0>         0.0000
     14 C14         1.3055   -0.4690   -0.5889 C.3       1 <0>         0.0000
     15 C15        -0.6195   -2.1064   -1.1248 C.3       1 <0>         0.0000
     16 C16         1.1247   -0.8283    0.9166 C.3       1 <0>         0.0000
     17 C17         0.4079    2.9708    3.6664 C.3       1 <0>         0.0000
     18 C18        -2.6285   -0.1458   -3.5480 C.3       1 <0>         0.0000
     19 N1         -1.3410   -0.7818    3.3736 N.1       1 <0>         0.0000
     20 N2         -0.1927    3.5501    1.2867 N.pl3     1 <0>         0.0000
     21 N3         -0.2899   -1.2032    1.1395 N.3       1 <0>         0.0000
     22 O1         -2.6097   -0.7062   -0.9570 O.2       1 <0>         0.0000
     23 O2         -1.6319   -1.0181   -2.9747 O.3       1 <0>         0.0000
     24 H1         -0.6198    2.9272   -3.3283 H         1 <0>         0.0000
     25 H2          0.3999    0.7103   -3.0651 H         1 <0>         0.0000
     26 H3         -1.0400    4.4224   -1.3962 H         1 <0>         0.0000
     27 H4          2.6346    0.4206    1.7706 H         1 <0>         0.0000
     28 H5          1.3711   -0.0119    2.9159 H         1 <0>         0.0000
     29 H6          0.8875   -1.3952   -2.5198 H         1 <0>         0.0000
     30 H7          1.4827   -2.4954   -1.2900 H         1 <0>         0.0000
     31 H8         -1.8177   -2.5259    0.6317 H         1 <0>         0.0000
     32 H9         -0.1960   -3.2564    0.6499 H         1 <0>         0.0000
     33 H10         2.3897   -0.3870   -0.7489 H         1 <0>         0.0000
     34 H11        -0.7810   -3.0580   -1.6469 H         1 <0>         0.0000
     35 H12         1.7503   -1.7125    1.1199 H         1 <0>         0.0000
     36 H13         0.9990    3.8687    3.8852 H         1 <0>         0.0000
     37 H14        -0.6045    3.1288    4.0569 H         1 <0>         0.0000
     38 H15         0.8431    2.1352    4.2182 H         1 <0>         0.0000
     39 H16        -2.4087   -0.1148   -4.6154 H         1 <0>         0.0000
     40 H17        -2.5498    0.8497   -3.1061 H         1 <0>         0.0000
     41 H18        -3.6299   -0.5453   -3.3716 H         1 <0>         0.0000
     42 H19        -0.6509    4.4132    1.5422 H         1 <0>         0.0000
@<TRIPOS>BOND
     1    1   19 3
     2    1   21 1
     3    2    3 ar
     4    2    4 ar
     5    2   24 1
     6    3    6 ar
     7    3   25 1
     8    4    8 ar
     9    4   26 1
    10    5    6 ar
    11    5    7 1
    12    5    8 ar
    13    6   14 1
    14    7    9 2
    15    7   11 1
    16    8   20 1
    17    9   17 1
    18    9   20 1
    19   10   15 1
    20   10   22 2
    21   10   23 1
    22   11   16 1
    23   11   27 1
    24   11   28 1
    25   12   14 1
    26   12   15 1
    27   12   29 1
    28   12   30 1
    29   13   15 1
    30   13   21 1
    31   13   31 1
    32   13   32 1
    33   14   16 1
    34   14   33 1
    35   15   34 1
    36   16   21 1
    37   16   35 1
    38   17   36 1
    39   17   37 1
    40   17   38 1
    41   18   23 1
    42   18   39 1
    43   18   40 1
    44   18   41 1
    45   20   42 1
