@<TRIPOS>MOLECULE
*****
   46    50     0     0     0
SMALL
NO_CHARGES

@<TRIPOS>ATOM
      1 C1         -0.8253    4.0418    3.7442 C.ar      1 <0>         0.0000
      2 C2          1.7360   -2.2257    0.0971 C.ar      1 <0>         0.0000
      3 C3         -1.4291    3.2128    2.7963 C.ar      1 <0>         0.0000
      4 C4          0.5523   -1.6097    0.5006 C.ar      1 <0>         0.0000
      5 C5         -0.9113    3.7433    5.1074 C.ar      1 <0>         0.0000
      6 C6          1.8991   -0.1026    1.8376 C.ar      1 <0>         0.0000
      7 C7          5.2472   -1.8544   -0.6451 C.ar      1 <0>         0.0000
      8 C8         -2.2039    1.7534    4.5607 C.ar      1 <0>         0.0000
      9 C9          4.2207   -3.9329   -0.0401 C.ar      1 <0>         0.0000
     10 C10         6.2060   -4.0125   -1.1816 C.ar      1 <0>         0.0000
     11 C11         3.0076   -1.8122    0.5298 C.ar      1 <0>         0.0000
     12 C12         3.0958   -0.7242    1.4391 C.ar      1 <0>         0.0000
     13 C13         4.1800   -2.5286   -0.0347 C.ar      1 <0>         0.0000
     14 C14        -2.1214    2.0581    3.1945 C.ar      1 <0>         0.0000
     15 C15         0.6483   -0.5227    1.3816 C.ar      1 <0>         0.0000
     16 C16         6.2469   -2.6204   -1.2166 C.ar      1 <0>         0.0000
     17 C17        -1.6094    2.5993    5.4967 C.ar      1 <0>         0.0000
     18 C18         4.3363   -0.2030    2.0248 C.2       1 <0>         0.0000
     19 C19        -1.7819    0.1173    1.5000 C.2       1 <0>         0.0000
     20 C20        -4.1369    0.6508    2.3407 C.3       1 <0>         0.0000
     21 C21        -3.8118    1.6459    1.2632 C.3       1 <0>         0.0000
     22 C22        -2.7032    1.1275    2.1728 C.3       1 <0>         0.0000
     23 N1          5.6468    1.0979    3.0922 N.2       1 <0>         0.0000
     24 N2          5.1977   -4.6668   -0.5934 N.ar      1 <0>         0.0000
     25 N3          4.3780    0.9817    2.6784 N.2       1 <0>         0.0000
     26 N4          5.5396   -0.8135    2.0337 N.2       1 <0>         0.0000
     27 N5          6.3419    0.0231    2.7108 N.2       1 <0>         0.0000
     28 N6         -0.4719    0.2020    1.8657 N.am      1 <0>         0.0000
     29 O1         -2.2345   -0.6911    0.6842 O.2       1 <0>         0.0000
     30 F1          7.2949   -2.0103   -1.8399 F         1 <0>         0.0000
     31 Cl1        -1.7363    2.2088    7.2081 Cl        1 <0>         0.0000
     32 H1         -0.2738    4.9219    3.4252 H         1 <0>         0.0000
     33 H2          1.6747   -3.0469   -0.6128 H         1 <0>         0.0000
     34 H3         -1.3530    3.4475    1.7379 H         1 <0>         0.0000
     35 H4         -0.4101   -1.9412    0.1367 H         1 <0>         0.0000
     36 H5         -0.4401    4.3778    5.8511 H         1 <0>         0.0000
     37 H6          1.9854    0.7300    2.5315 H         1 <0>         0.0000
     38 H7          5.3006   -0.7723   -0.6650 H         1 <0>         0.0000
     39 H8         -2.7225    0.8571    4.8866 H         1 <0>         0.0000
     40 H9          3.4237   -4.4913    0.4476 H         1 <0>         0.0000
     41 H10         7.0049   -4.5980   -1.6339 H         1 <0>         0.0000
     42 H11        -4.6716    1.0035    3.2175 H         1 <0>         0.0000
     43 H12        -4.3375   -0.3693    2.0317 H         1 <0>         0.0000
     44 H13        -3.7960    1.2868    0.2397 H         1 <0>         0.0000
     45 H14        -4.1154    2.6784    1.4088 H         1 <0>         0.0000
     46 H15        -0.2371    0.9242    2.5353 H         1 <0>         0.0000
@<TRIPOS>BOND
     1    1    3 ar
     2    1    5 ar
     3    1   32 1
     4    2    4 ar
     5    2   11 ar
     6    2   33 1
     7    3   14 ar
     8    3   34 1
     9    4   15 ar
    10    4   35 1
    11    5   17 ar
    12    5   36 1
    13    6   12 ar
    14    6   15 ar
    15    6   37 1
    16    7   13 ar
    17    7   16 ar
    18    7   38 1
    19    8   14 ar
    20    8   17 ar
    21    8   39 1
    22    9   13 ar
    23    9   24 ar
    24    9   40 1
    25   10   16 ar
    26   10   24 ar
    27   10   41 1
    28   11   12 ar
    29   11   13 1
    30   12   18 1
    31   14   22 1
    32   15   28 1
    33   16   30 1
    34   17   31 1
    35   18   25 2
    36   18   26 1
    37   19   22 1
    38   19   28 am
    39   19   29 2
    40   20   21 1
    41   20   22 1
    42   20   42 1
    43   20   43 1
    44   21   22 1
    45   21   44 1
    46   21   45 1
    47   23   25 1
    48   23   27 1
    49   26   27 2
    50   28   46 1
