@<TRIPOS>MOLECULE
*****
   61    64     0     0     0
SMALL
NO_CHARGES

@<TRIPOS>ATOM
      1 C1         -8.2504   -0.3928    5.3117 C.ar      1 <0>         0.0000
      2 C2         -6.7068   -1.3271    3.6830 C.ar      1 <0>         0.0000
      3 C3         -7.2053    0.2801    5.9318 C.ar      1 <0>         0.0000
      4 C4         -5.6622   -0.6496    4.3055 C.ar      1 <0>         0.0000
      5 C5        -10.7303   -3.7101    1.1327 C.ar      1 <0>         0.0000
      6 C6         -8.0216   -1.1996    4.1758 C.ar      1 <0>         0.0000
      7 C7         -5.9115    0.1548    5.4181 C.ar      1 <0>         0.0000
      8 C8         -9.6859   -4.0973    0.3098 C.ar      1 <0>         0.0000
      9 C9         -8.3748   -3.6856    0.6651 C.ar      1 <0>         0.0000
     10 C10        -9.2767   -2.6124    2.4849 C.ar      1 <0>         0.0000
     11 C11        -3.4696   -4.0502   -0.0206 C.3       1 <0>         0.0000
     12 C12        -4.2452   -1.6892    0.3054 C.3       1 <0>         0.0000
     13 C13        -4.8934   -4.4883   -0.3852 C.3       1 <0>         0.0000
     14 C14        -5.6672   -2.1222   -0.0728 C.3       1 <0>         0.0000
     15 C15         0.6067   -2.6372   -0.4359 C.3       1 <0>         0.0000
     16 C16        -0.1151   -0.5602    0.7257 C.3       1 <0>         0.0000
     17 C17        -0.8328   -2.7996   -0.9293 C.3       1 <0>         0.0000
     18 C18        -1.5341   -0.8017    0.2027 C.3       1 <0>         0.0000
     19 C19        -3.1833   -2.5744   -0.3678 C.3       1 <0>         0.0000
     20 C20        -5.9241   -3.5883    0.2953 C.3       1 <0>         0.0000
     21 C21         0.9290   -1.1621   -0.2031 C.3       1 <0>         0.0000
     22 N1        -10.5535   -2.9627    2.2318 N.ar      1 <0>         0.0000
     23 N2         -8.1970   -2.9365    1.7700 N.ar      1 <0>         0.0000
     24 N3         -1.7984   -2.2349    0.0219 N.3       1 <0>         0.0000
     25 N4         -4.4843    2.4920    5.3284 N.pl3     1 <0>         0.0000
     26 N5         -9.1335   -1.8308    3.6165 N.pl3     1 <0>         0.0000
     27 N6         -7.2784   -4.0207   -0.0523 N.pl3     1 <0>         0.0000
     28 O1         -4.9742    1.3564    7.5639 O.2       1 <0>         0.0000
     29 O2         -3.3212    0.3095    5.8904 O.2       1 <0>         0.0000
     30 O3          2.2143   -0.9642    0.3987 O.3       1 <0>         0.0000
     31 S1         -4.5647    1.0258    6.1943 S.o2      1 <0>         0.0000
     32 Br1        -9.9996   -5.1580   -1.2545 Br        1 <0>         0.0000
     33 H1         -9.2579   -0.3004    5.7112 H         1 <0>         0.0000
     34 H2         -6.5214   -1.9576    2.8279 H         1 <0>         0.0000
     35 H3         -7.3835    0.8840    6.8156 H         1 <0>         0.0000
     36 H4         -4.6470   -0.7607    3.9371 H         1 <0>         0.0000
     37 H5        -11.7511   -4.0079    0.9020 H         1 <0>         0.0000
     38 H6         -3.3057   -4.1754    1.0565 H         1 <0>         0.0000
     39 H7         -2.7598   -4.7132   -0.5215 H         1 <0>         0.0000
     40 H8         -4.1189   -0.6429    0.0173 H         1 <0>         0.0000
     41 H9         -4.1193   -1.7400    1.3954 H         1 <0>         0.0000
     42 H10        -5.0304   -4.4374   -1.4752 H         1 <0>         0.0000
     43 H11        -5.0520   -5.5312   -0.0885 H         1 <0>         0.0000
     44 H12        -6.3985   -1.4825    0.4282 H         1 <0>         0.0000
     45 H13        -5.8193   -2.0007   -1.1536 H         1 <0>         0.0000
     46 H14         0.7366   -3.1809    0.5062 H         1 <0>         0.0000
     47 H15         1.2940   -3.0710   -1.1747 H         1 <0>         0.0000
     48 H16         0.0597    0.5152    0.8365 H         1 <0>         0.0000
     49 H17        -0.0089   -1.0196    1.7144 H         1 <0>         0.0000
     50 H18        -0.9394   -2.3199   -1.9241 H         1 <0>         0.0000
     51 H19        -1.0404   -3.8617   -1.0711 H         1 <0>         0.0000
     52 H20        -2.2333   -0.3948    0.9335 H         1 <0>         0.0000
     53 H21        -1.6833   -0.2396   -0.7417 H         1 <0>         0.0000
     54 H22        -3.3068   -2.4436   -1.4624 H         1 <0>         0.0000
     55 H23        -5.8217   -3.6995    1.3800 H         1 <0>         0.0000
     56 H24         0.8893   -0.6347   -1.1711 H         1 <0>         0.0000
     57 H25        -4.7240    3.2619    5.9520 H         1 <0>         0.0000
     58 H26        -3.5380    2.6034    4.9658 H         1 <0>         0.0000
     59 H27       -10.0253   -1.6536    4.0636 H         1 <0>         0.0000
     60 H28        -7.4213   -4.5507   -0.9025 H         1 <0>         0.0000
     61 H29         2.8801   -1.3789   -0.1725 H         1 <0>         0.0000
@<TRIPOS>BOND
     1    1    3 ar
     2    1    6 ar
     3    1   33 1
     4    2    4 ar
     5    2    6 ar
     6    2   34 1
     7    3    7 ar
     8    3   35 1
     9    4    7 ar
    10    4   36 1
    11    5    8 ar
    12    5   22 ar
    13    5   37 1
    14    6   26 1
    15    7   31 1
    16    8    9 ar
    17    8   32 1
    18    9   23 ar
    19    9   27 1
    20   10   22 ar
    21   10   23 ar
    22   10   26 1
    23   11   13 1
    24   11   19 1
    25   11   38 1
    26   11   39 1
    27   12   14 1
    28   12   19 1
    29   12   40 1
    30   12   41 1
    31   13   20 1
    32   13   42 1
    33   13   43 1
    34   14   20 1
    35   14   44 1
    36   14   45 1
    37   15   17 1
    38   15   21 1
    39   15   46 1
    40   15   47 1
    41   16   18 1
    42   16   21 1
    43   16   48 1
    44   16   49 1
    45   17   24 1
    46   17   50 1
    47   17   51 1
    48   18   24 1
    49   18   52 1
    50   18   53 1
    51   19   24 1
    52   19   54 1
    53   20   27 1
    54   20   55 1
    55   21   30 1
    56   21   56 1
    57   25   31 1
    58   25   57 1
    59   25   58 1
    60   26   59 1
    61   27   60 1
    62   28   31 2
    63   29   31 2
    64   30   61 1
