@<TRIPOS>MOLECULE
*****
   46    48     0     0     0
SMALL
NO_CHARGES

@<TRIPOS>ATOM
      1 C1          2.0984   -2.3244    4.1916 C.ar      1 <0>         0.0000
      2 C2          1.9111   -2.5335    2.8230 C.ar      1 <0>         0.0000
      3 C3          1.9570   -0.1284    2.3452 C.ar      1 <0>         0.0000
      4 C4          2.2150   -1.0095    4.6418 C.ar      1 <0>         0.0000
      5 C5          1.8408   -1.4613    1.9011 C.ar      1 <0>         0.0000
      6 C6          2.1386    0.0323    3.7061 C.ar      1 <0>         0.0000
      7 C7          2.4297    0.8162    5.7194 C.2       1 <0>         0.0000
      8 C8          1.3487   -0.8528   -0.4677 C.2       1 <0>         0.0000
      9 C9          2.4800   -3.7002   -4.4959 C.2       1 <0>         0.0000
     10 C10         2.6882    4.7438    6.8146 C.2       1 <0>         0.0000
     11 C11         1.6154   -3.1294    0.0271 C.3       1 <0>         0.0000
     12 C12         1.5813   -2.9108   -1.4922 C.3       1 <0>         0.0000
     13 C13         2.3379   -3.1940   -5.9193 C.3       1 <0>         0.0000
     14 C14         2.5963    8.2490    5.8095 C.3       1 <0>         0.0000
     15 C15         2.5336    3.5285    5.9203 C.3       1 <0>         0.0000
     16 C16         2.9427   -3.1107   -2.1589 C.3       1 <0>         0.0000
     17 C17         2.7307    7.1205    6.8137 C.3       1 <0>         0.0000
     18 N1          2.4009   -0.4653    5.9184 N.2       1 <0>         0.0000
     19 N2          1.6677   -1.7608    0.5278 N.am      1 <0>         0.0000
     20 N3          2.9154   -2.7806   -3.5722 N.am      1 <0>         0.0000
     21 O1          1.2223    0.3504   -0.3877 O.2       1 <0>         0.0000
     22 O2          2.2395   -4.8671   -4.1878 O.2       1 <0>         0.0000
     23 O3          2.8668    4.7124    8.0155 O.2       1 <0>         0.0000
     24 O4          2.2780    1.2219    4.4005 O.3       1 <0>         0.0000
     25 O5          1.1826   -1.5286   -1.6488 O.3       1 <0>         0.0000
     26 O6          2.5990    5.8681    6.0796 O.3       1 <0>         0.0000
     27 S1          2.6452    2.0264    6.9634 S.3       1 <0>         0.0000
     28 H1          2.1479   -3.1606    4.8818 H         1 <0>         0.0000
     29 H2          1.8120   -3.5535    2.4717 H         1 <0>         0.0000
     30 H3          1.8942    0.7061    1.6612 H         1 <0>         0.0000
     31 H4          0.7235   -3.6519    0.3922 H         1 <0>         0.0000
     32 H5          2.5005   -3.6967    0.3315 H         1 <0>         0.0000
     33 H6          0.8307   -3.5258   -1.9898 H         1 <0>         0.0000
     34 H7          2.9460   -3.8218   -6.5755 H         1 <0>         0.0000
     35 H8          1.2955   -3.3079   -6.2295 H         1 <0>         0.0000
     36 H9          2.6368   -2.1499   -6.0449 H         1 <0>         0.0000
     37 H10         3.3776    8.1899    5.0463 H         1 <0>         0.0000
     38 H11         1.6221    8.2179    5.3130 H         1 <0>         0.0000
     39 H12         2.6900    9.2100    6.3252 H         1 <0>         0.0000
     40 H13         3.3180    3.5350    5.1605 H         1 <0>         0.0000
     41 H14         1.5717    3.5755    5.4056 H         1 <0>         0.0000
     42 H15         3.2375   -4.1583   -2.0632 H         1 <0>         0.0000
     43 H16         3.6925   -2.4875   -1.6595 H         1 <0>         0.0000
     44 H17         1.9527    7.1532    7.5810 H         1 <0>         0.0000
     45 H18         3.7020    7.1251    7.3153 H         1 <0>         0.0000
     46 H19         2.8960   -1.7999   -3.8200 H         1 <0>         0.0000
@<TRIPOS>BOND
     1    1    2 ar
     2    1    4 ar
     3    1   28 1
     4    2    5 ar
     5    2   29 1
     6    3    5 ar
     7    3    6 ar
     8    3   30 1
     9    4    6 ar
    10    4   18 1
    11    5   19 1
    12    6   24 1
    13    7   18 2
    14    7   24 1
    15    7   27 1
    16    8   19 am
    17    8   21 2
    18    8   25 1
    19    9   13 1
    20    9   20 am
    21    9   22 2
    22   10   15 1
    23   10   23 2
    24   10   26 1
    25   11   12 1
    26   11   19 1
    27   11   31 1
    28   11   32 1
    29   12   16 1
    30   12   25 1
    31   12   33 1
    32   13   34 1
    33   13   35 1
    34   13   36 1
    35   14   17 1
    36   14   37 1
    37   14   38 1
    38   14   39 1
    39   15   27 1
    40   15   40 1
    41   15   41 1
    42   16   20 1
    43   16   42 1
    44   16   43 1
    45   17   26 1
    46   17   44 1
    47   17   45 1
    48   20   46 1
