@<TRIPOS>MOLECULE
*****
   37    38     0     0     0
SMALL
NO_CHARGES

@<TRIPOS>ATOM
      1 C1         -0.6513    0.9286   -2.6434 C.2       1 <0>         0.0000
      2 C2         -1.1363    0.0576   -0.7944 C.2       1 <0>         0.0000
      3 C3          2.9109    3.0531    0.6599 C.3       1 <0>         0.0000
      4 C4          2.5529    1.7138    0.0168 C.3       1 <0>         0.0000
      5 C5          1.9235    2.9910   -0.4671 C.3       1 <0>         0.0000
      6 C6          3.0402   -3.2968   -2.1208 C.3       1 <0>         0.0000
      7 C7          0.5966   -2.7837   -2.0042 C.3       1 <0>         0.0000
      8 C8          1.7832   -3.6647    0.0219 C.3       1 <0>         0.0000
      9 C9          1.7976    0.6655    0.8054 C.3       1 <0>         0.0000
     10 C10         1.2246   -0.4916   -0.0371 C.3       1 <0>         0.0000
     11 C11         2.3110   -1.2992   -0.8078 C.3       1 <0>         0.0000
     12 C12         1.9188   -2.7516   -1.2137 C.3       1 <0>         0.0000
     13 N1         -1.7154    0.6290   -1.8419 N.2       1 <0>         0.0000
     14 N2          0.5331    0.5723   -2.1572 N.2       1 <0>         0.0000
     15 N3          0.2054    0.0054   -0.9632 N.pl3     1 <0>         0.0000
     16 O1          3.5436   -1.2811   -0.0772 O.3       1 <0>         0.0000
     17 Cl1         0.2143    3.3386   -0.1058 Cl        1 <0>         0.0000
     18 Cl2         2.4204    3.6142   -2.0568 Cl        1 <0>         0.0000
     19 H1         -0.7450    1.4226   -3.6014 H         1 <0>         0.0000
     20 H2         -1.6364   -0.3281    0.0852 H         1 <0>         0.0000
     21 H3          2.5071    3.2652    1.6458 H         1 <0>         0.0000
     22 H4          3.8854    3.4841    0.4546 H         1 <0>         0.0000
     23 H5          3.3039    1.3176   -0.6581 H         1 <0>         0.0000
     24 H6          4.0131   -3.2562   -1.6243 H         1 <0>         0.0000
     25 H7          3.1090   -2.7122   -3.0448 H         1 <0>         0.0000
     26 H8          2.8355   -4.3368   -2.3973 H         1 <0>         0.0000
     27 H9         -0.2707   -2.5533   -1.3802 H         1 <0>         0.0000
     28 H10         0.6091   -2.0758   -2.8375 H         1 <0>         0.0000
     29 H11         0.4435   -3.7872   -2.4156 H         1 <0>         0.0000
     30 H12         1.0345   -3.3001    0.7343 H         1 <0>         0.0000
     31 H13         2.7326   -3.7948    0.5558 H         1 <0>         0.0000
     32 H14         1.4671   -4.6653   -0.2895 H         1 <0>         0.0000
     33 H15         0.9709    1.1295    1.3516 H         1 <0>         0.0000
     34 H16         2.4793    0.2425    1.5484 H         1 <0>         0.0000
     35 H17         0.6912   -1.1550    0.6519 H         1 <0>         0.0000
     36 H18         2.5255   -0.7432   -1.7218 H         1 <0>         0.0000
     37 H19         3.4662   -1.8910    0.6731 H         1 <0>         0.0000
@<TRIPOS>BOND
     1    1   13 1
     2    1   14 2
     3    1   19 1
     4    2   13 2
     5    2   15 1
     6    2   20 1
     7    3    4 1
     8    3    5 1
     9    3   21 1
    10    3   22 1
    11    4    5 1
    12    4    9 1
    13    4   23 1
    14    5   17 1
    15    5   18 1
    16    6   12 1
    17    6   24 1
    18    6   25 1
    19    6   26 1
    20    7   12 1
    21    7   27 1
    22    7   28 1
    23    7   29 1
    24    8   12 1
    25    8   30 1
    26    8   31 1
    27    8   32 1
    28    9   10 1
    29    9   33 1
    30    9   34 1
    31   10   11 1
    32   10   15 1
    33   10   35 1
    34   11   12 1
    35   11   16 1
    36   11   36 1
    37   14   15 1
    38   16   37 1
