@<TRIPOS>MOLECULE
*****
   39    40     0     0     0
SMALL
NO_CHARGES

@<TRIPOS>ATOM
      1 C1          3.8398    0.8939   -1.9537 C.2       1 <0>         0.0000
      2 C2          3.2755    0.1647   -0.9386 C.2       1 <0>         0.0000
      3 C3          5.4608    1.1809   -0.4443 C.2       1 <0>         0.0000
      4 C4          0.7310    1.0893    0.3839 C.3       1 <0>         0.0000
      5 C5          0.0512   -1.1738    0.5076 C.3       1 <0>         0.0000
      6 C6         -0.2758    1.0118    1.5378 C.3       1 <0>         0.0000
      7 C7         -1.0288   -0.3026    1.1877 C.3       1 <0>         0.0000
      8 C8          6.7468    1.6601    0.1613 C.3       1 <0>         0.0000
      9 C9          0.4253    1.0053    2.9020 C.3       1 <0>         0.0000
     10 C10        -1.7294   -0.9991    2.3519 C.3       1 <0>         0.0000
     11 C11         3.9701    0.2182   -4.3858 C.3       1 <0>         0.0000
     12 C12         3.2817    1.1067   -3.3349 C.3       1 <0>         0.0000
     13 C13         1.9876   -0.6040   -0.8949 C.3       1 <0>         0.0000
     14 N1          5.0760    1.4564   -1.6589 N.2       1 <0>         0.0000
     15 N2          1.2125   -0.2941    0.2970 N.3       1 <0>         0.0000
     16 O1         -1.9936   -0.0254    0.1436 O.3       1 <0>         0.0000
     17 S1          4.3232    0.1965    0.4620 S.3       1 <0>         0.0000
     18 H1          0.2298    1.4126   -0.5447 H         1 <0>         0.0000
     19 H2          1.5618    1.7726    0.5818 H         1 <0>         0.0000
     20 H3          0.3369   -2.0336    1.1246 H         1 <0>         0.0000
     21 H4         -0.3684   -1.5542   -0.4347 H         1 <0>         0.0000
     22 H5         -0.9799    1.8519    1.5008 H         1 <0>         0.0000
     23 H6          6.5677    2.2514    1.0655 H         1 <0>         0.0000
     24 H7          7.3948    0.8211    0.4365 H         1 <0>         0.0000
     25 H8          7.2680    2.2817   -0.5694 H         1 <0>         0.0000
     26 H9          1.1428    0.1827    2.9730 H         1 <0>         0.0000
     27 H10        -0.2888    0.9165    3.7265 H         1 <0>         0.0000
     28 H11         0.9785    1.9399    3.0425 H         1 <0>         0.0000
     29 H12        -2.4732   -0.3389    2.8151 H         1 <0>         0.0000
     30 H13        -1.0220   -1.3040    3.1275 H         1 <0>         0.0000
     31 H14        -2.2481   -1.8909    1.9869 H         1 <0>         0.0000
     32 H15         5.0486    0.4017   -4.3943 H         1 <0>         0.0000
     33 H16         3.5776    0.4225   -5.3879 H         1 <0>         0.0000
     34 H17         3.8093   -0.8425   -4.1650 H         1 <0>         0.0000
     35 H18         2.2039    0.9195   -3.3383 H         1 <0>         0.0000
     36 H19         3.4263    2.1598   -3.5997 H         1 <0>         0.0000
     37 H20         1.4200   -0.4045   -1.8220 H         1 <0>         0.0000
     38 H21         2.2012   -1.6803   -0.8843 H         1 <0>         0.0000
     39 H22        -2.6601    0.5770    0.5123 H         1 <0>         0.0000
@<TRIPOS>BOND
     1    1    2 2
     2    1   12 1
     3    1   14 1
     4    2   13 1
     5    2   17 1
     6    3    8 1
     7    3   14 2
     8    3   17 1
     9    4    6 1
    10    4   15 1
    11    4   18 1
    12    4   19 1
    13    5    7 1
    14    5   15 1
    15    5   20 1
    16    5   21 1
    17    6    7 1
    18    6    9 1
    19    6   22 1
    20    7   10 1
    21    7   16 1
    22    8   23 1
    23    8   24 1
    24    8   25 1
    25    9   26 1
    26    9   27 1
    27    9   28 1
    28   10   29 1
    29   10   30 1
    30   10   31 1
    31   11   12 1
    32   11   32 1
    33   11   33 1
    34   11   34 1
    35   12   35 1
    36   12   36 1
    37   13   15 1
    38   13   37 1
    39   13   38 1
    40   16   39 1
