@<TRIPOS>MOLECULE
*****
   25    26     0     0     0
SMALL
NO_CHARGES

@<TRIPOS>ATOM
      1 C1          3.1251   -0.5346    1.4462 C.ar      1 <0>         0.0000
      2 C2          1.6384   -2.1538    0.4437 C.ar      1 <0>         0.0000
      3 C3          2.0465    0.0388    2.1197 C.ar      1 <0>         0.0000
      4 C4          0.5598   -1.5804    1.1172 C.ar      1 <0>         0.0000
      5 C5          5.1420   -6.8092   -3.9812 C.ar      1 <0>         0.0000
      6 C6          2.9210   -1.6309    0.6081 C.ar      1 <0>         0.0000
      7 C7          0.7639   -0.4841    1.9552 C.ar      1 <0>         0.0000
      8 C8          3.9585   -6.4046   -3.4188 C.ar      1 <0>         0.0000
      9 C9          5.0715   -4.7680   -2.3315 C.ar      1 <0>         0.0000
     10 C10         4.0455   -2.2286   -0.0940 C.2       1 <0>         0.0000
     11 N1          6.2924   -6.1706   -3.7007 N.ar      1 <0>         0.0000
     12 N2          3.8950   -5.3650   -2.5732 N.ar      1 <0>         0.0000
     13 N3          6.2627   -5.1209   -2.8535 N.ar      1 <0>         0.0000
     14 N4          3.9137   -3.2534   -0.8888 N.2       1 <0>         0.0000
     15 N5          5.0628   -3.6734   -1.4530 N.pl3     1 <0>         0.0000
     16 O1          2.7965   -7.0603   -3.7118 O.3       1 <0>         0.0000
     17 Br1        -0.6974    0.2927    2.8677 Br        1 <0>         0.0000
     18 H1          4.1204   -0.1192    1.5817 H         1 <0>         0.0000
     19 H2          1.4680   -3.0078   -0.2069 H         1 <0>         0.0000
     20 H3          2.2226    0.8926    2.7689 H         1 <0>         0.0000
     21 H4         -0.4333   -1.9999    0.9781 H         1 <0>         0.0000
     22 H5          5.2126   -7.6449   -4.6650 H         1 <0>         0.0000
     23 H6          5.0513   -1.7758    0.0693 H         1 <0>         0.0000
     24 H7          5.9422   -3.2080   -1.2570 H         1 <0>         0.0000
     25 H8          2.0572   -6.6529   -3.2364 H         1 <0>         0.0000
@<TRIPOS>BOND
     1    1    3 ar
     2    1    6 ar
     3    1   18 1
     4    2    4 ar
     5    2    6 ar
     6    2   19 1
     7    3    7 ar
     8    3   20 1
     9    4    7 ar
    10    4   21 1
    11    5    8 ar
    12    5   11 ar
    13    5   22 1
    14    6   10 1
    15    7   17 1
    16    8   12 ar
    17    8   16 1
    18    9   12 ar
    19    9   13 ar
    20    9   15 1
    21   10   14 2
    22   10   23 1
    23   11   13 ar
    24   14   15 1
    25   15   24 1
    26   16   25 1
