@<TRIPOS>MOLECULE
*****
   31    33     0     0     0
SMALL
NO_CHARGES

@<TRIPOS>ATOM
      1 C1         -1.2380   -1.7270   -2.3920 C.ar      1 <0>         0.0000
      2 C2          4.8870    0.6870   -1.3660 C.ar      1 <0>         0.0000
      3 C3         -0.9380   -2.9410   -1.7820 C.ar      1 <0>         0.0000
      4 C4         -0.7340   -0.5430   -1.8640 C.ar      1 <0>         0.0000
      5 C5          5.0470   -0.6850   -1.5550 C.ar      1 <0>         0.0000
      6 C6          3.9840    1.1570   -0.4140 C.ar      1 <0>         0.0000
      7 C7         -0.1370   -2.9690   -0.6450 C.ar      1 <0>         0.0000
      8 C8          0.0670   -0.5730   -0.7260 C.ar      1 <0>         0.0000
      9 C9          4.3050   -1.5870   -0.8000 C.ar      1 <0>         0.0000
     10 C10         3.2380    0.2620    0.3450 C.ar      1 <0>         0.0000
     11 C11         0.3680   -1.7850   -0.1050 C.ar      1 <0>         0.0000
     12 C12         3.3920   -1.1140    0.1460 C.ar      1 <0>         0.0000
     13 C13         0.6900   -2.5200    2.3310 C.3       1 <0>         0.0000
     14 C14         0.8670   -1.0150    2.3290 C.3       1 <0>         0.0000
     15 C15         1.2490   -1.8240    1.1330 C.3       1 <0>         0.0000
     16 N1          2.6610   -2.0560    0.8830 N.pl3     1 <0>         0.0000
     17 H1         -1.8470   -1.7040   -3.2590 H         1 <0>         0.0000
     18 H2          5.4530    1.3710   -1.9430 H         1 <0>         0.0000
     19 H3         -1.3200   -3.8440   -2.1850 H         1 <0>         0.0000
     20 H4         -0.9570    0.3830   -2.3300 H         1 <0>         0.0000
     21 H5          5.7370   -1.0400   -2.2770 H         1 <0>         0.0000
     22 H6          3.8670    2.2000   -0.2680 H         1 <0>         0.0000
     23 H7          0.0910   -3.8960   -0.1860 H         1 <0>         0.0000
     24 H8          0.4540    0.3300   -0.3310 H         1 <0>         0.0000
     25 H9          4.4280   -2.6280   -0.9430 H         1 <0>         0.0000
     26 H10         2.5620    0.6220    1.0730 H         1 <0>         0.0000
     27 H11         1.3880   -3.0840    2.9330 H         1 <0>         0.0000
     28 H12        -0.3270   -2.8800    2.2600 H         1 <0>         0.0000
     29 H13        -0.0330   -0.4220    2.2460 H         1 <0>         0.0000
     30 H14         1.6780   -0.6280    2.9310 H         1 <0>         0.0000
     31 H15         2.7950   -3.0070    0.5190 H         1 <0>         0.0000
@<TRIPOS>BOND
     1    1    3 ar
     2    1    4 ar
     3    1   17 1
     4    2    5 ar
     5    2    6 ar
     6    2   18 1
     7    3    7 ar
     8    3   19 1
     9    4    8 ar
    10    4   20 1
    11    5    9 ar
    12    5   21 1
    13    6   10 ar
    14    6   22 1
    15    7   11 ar
    16    7   23 1
    17    8   11 ar
    18    8   24 1
    19    9   12 ar
    20    9   25 1
    21   10   12 ar
    22   10   26 1
    23   11   15 1
    24   12   16 1
    25   13   14 1
    26   13   15 1
    27   13   27 1
    28   13   28 1
    29   14   15 1
    30   14   29 1
    31   14   30 1
    32   15   16 1
    33   16   31 1
