@<TRIPOS>MOLECULE
*****
   32    34     0     0     0
SMALL
NO_CHARGES

@<TRIPOS>ATOM
      1 C1          4.4299   -3.7007   -3.4856 C.ar      1 <0>         0.0000
      2 C2          5.1265   -2.4960   -3.4921 C.ar      1 <0>         0.0000
      3 C3          3.5804   -4.0050   -2.4262 C.ar      1 <0>         0.0000
      4 C4          0.5890    0.2624    0.8747 C.ar      1 <0>         0.0000
      5 C5         -0.0529    0.6778    2.0429 C.ar      1 <0>         0.0000
      6 C6          2.7796    0.5112    1.9229 C.ar      1 <0>         0.0000
      7 C7          4.9547   -1.6188   -2.4307 C.ar      1 <0>         0.0000
      8 C8          3.4478   -3.0896   -1.3919 C.ar      1 <0>         0.0000
      9 C9          1.9929    0.1799    0.8149 C.ar      1 <0>         0.0000
     10 C10         2.1361    0.9213    3.0743 C.ar      1 <0>         0.0000
     11 C11         0.7465    0.9988    3.1209 C.ar      1 <0>         0.0000
     12 C12         1.4478    1.6610    5.2096 C.2       1 <0>         0.0000
     13 C13         2.6330   -0.2570   -0.4163 C.2       1 <0>         0.0000
     14 C14         2.7044    1.3341    4.3946 C.3       1 <0>         0.0000
     15 C15         3.9699   -0.9941   -0.3213 C.3       1 <0>         0.0000
     16 N1          4.1304   -1.9369   -1.4233 N.ar      1 <0>         0.0000
     17 N2          0.3449    1.4341    4.3788 N.am      1 <0>         0.0000
     18 O1          1.4373    2.0471    6.3683 O.2       1 <0>         0.0000
     19 O2          2.1424   -0.0593   -1.5400 O.2       1 <0>         0.0000
     20 H1          4.5491   -4.4024   -4.3058 H         1 <0>         0.0000
     21 H2          5.7919   -2.2471   -4.3118 H         1 <0>         0.0000
     22 H3          3.0318   -4.9406   -2.4095 H         1 <0>         0.0000
     23 H4         -0.0107    0.0015    0.0057 H         1 <0>         0.0000
     24 H5         -1.1337    0.7428    2.0925 H         1 <0>         0.0000
     25 H6          3.8624    0.4508    1.8854 H         1 <0>         0.0000
     26 H7          5.4639   -0.6648   -2.3695 H         1 <0>         0.0000
     27 H8          2.8053   -3.2597   -0.5366 H         1 <0>         0.0000
     28 H9          3.2463    0.5133    4.8715 H         1 <0>         0.0000
     29 H10         3.3234    2.2299    4.3016 H         1 <0>         0.0000
     30 H11         4.0176   -1.5496    0.6211 H         1 <0>         0.0000
     31 H12         4.7916   -0.2714   -0.3596 H         1 <0>         0.0000
     32 H13        -0.6234    1.5664    4.6459 H         1 <0>         0.0000
@<TRIPOS>BOND
     1    1    3 ar
     2    1    2 ar
     3    1   20 1
     4    2    7 ar
     5    2   21 1
     6    3    8 ar
     7    3   22 1
     8    4    5 ar
     9    4    9 ar
    10    4   23 1
    11    5   11 ar
    12    5   24 1
    13    6    9 ar
    14    6   10 ar
    15    6   25 1
    16    7   16 ar
    17    7   26 1
    18    8   16 ar
    19    8   27 1
    20    9   13 1
    21   10   11 ar
    22   10   14 1
    23   11   17 1
    24   12   14 1
    25   12   17 am
    26   12   18 2
    27   13   15 1
    28   13   19 2
    29   14   28 1
    30   14   29 1
    31   15   16 1
    32   15   30 1
    33   15   31 1
    34   17   32 1
