@<TRIPOS>MOLECULE
*****
   24    25     0     0     0
SMALL
NO_CHARGES

@<TRIPOS>ATOM
      1 C1         -0.6225    0.0989   -3.1560 C.2       1 <0>         0.0000
      2 C2         -1.0350   -1.1629   -2.6383 C.2       1 <0>         0.0000
      3 C3         -0.6386    1.0836   -2.1929 C.2       1 <0>         0.0000
      4 C4         -1.1472   -3.3237   -0.1654 C.2       1 <0>         0.0000
      5 C5         -1.7934   -2.1538   -0.4653 C.2       1 <0>         0.0000
      6 C6         -1.3504   -1.0945   -1.2990 C.2       1 <0>         0.0000
      7 C7         -2.0397   -3.9875    0.6940 C.2       1 <0>         0.0000
      8 C8          0.0502   -4.8139   -1.7346 C.2       1 <0>         0.0000
      9 C9         -1.8741   -5.3014    1.3378 C.3       1 <0>         0.0000
     10 C10         0.1730   -3.7863   -0.6292 C.3       1 <0>         0.0000
     11 N1         -3.1540   -3.2832    0.9106 N.2       1 <0>         0.0000
     12 O1         -1.0155   -5.2762   -2.1222 O.2       1 <0>         0.0000
     13 O2         -2.9921   -2.1178    0.1709 O.3       1 <0>         0.0000
     14 O3          1.2530   -5.2080   -2.2227 O.3       1 <0>         0.0000
     15 S1         -1.1494    0.4861   -0.6715 S.3       1 <0>         0.0000
     16 H1         -0.3281    0.2753   -4.1823 H         1 <0>         0.0000
     17 H2         -1.0927   -2.0705   -3.2265 H         1 <0>         0.0000
     18 H3         -0.3752    2.1252   -2.3099 H         1 <0>         0.0000
     19 H4         -1.3858   -5.2064    2.3230 H         1 <0>         0.0000
     20 H5         -2.8400   -5.8144    1.4940 H         1 <0>         0.0000
     21 H6         -1.2618   -5.9904    0.7287 H         1 <0>         0.0000
     22 H7          0.7874   -4.2092    0.1844 H         1 <0>         0.0000
     23 H8          0.7852   -2.9577   -1.0267 H         1 <0>         0.0000
     24 H9          2.0325   -4.7609   -1.8291 H         1 <0>         0.0000
@<TRIPOS>BOND
     1    1    2 1
     2    1    3 2
     3    1   16 1
     4    2    6 2
     5    2   17 1
     6    3   15 1
     7    3   18 1
     8    4    5 2
     9    4    7 1
    10    4   10 1
    11    5    6 1
    12    5   13 1
    13    6   15 1
    14    7    9 1
    15    7   11 2
    16    8   10 1
    17    8   12 2
    18    8   14 1
    19    9   19 1
    20    9   20 1
    21    9   21 1
    22   10   22 1
    23   10   23 1
    24   11   13 1
    25   14   24 1
