@<TRIPOS>MOLECULE
*****
   28    29     0     0     0
SMALL
NO_CHARGES

@<TRIPOS>ATOM
      1 C1          4.3861    0.7817    3.9499 C.ar      1 <0>         0.0000
      2 C2          4.3179   -0.2804    3.0466 C.ar      1 <0>         0.0000
      3 C3          3.2013    1.3294    4.4582 C.ar      1 <0>         0.0000
      4 C4          3.0756   -0.7941    2.6520 C.ar      1 <0>         0.0000
      5 C5          1.9661    0.8159    4.0620 C.ar      1 <0>         0.0000
      6 C6          1.8855   -0.2538    3.1539 C.ar      1 <0>         0.0000
      7 C7         -1.6822    0.2392    2.3415 C.2       1 <0>         0.0000
      8 C8         -3.7913   -0.2557    2.7408 C.3       1 <0>         0.0000
      9 C9         -3.7348    0.9583    1.7777 C.3       1 <0>         0.0000
     10 C10         0.5129   -1.9258    1.7438 C.3       1 <0>         0.0000
     11 C11         0.5095   -0.7885    2.7712 C.3       1 <0>         0.0000
     12 N1         -2.3920   -0.6763    2.8949 N.2       1 <0>         0.0000
     13 N2         -0.3220    0.3420    2.3332 N.pl3     1 <0>         0.0000
     14 O1         -2.3198    1.2839    1.7132 O.3       1 <0>         0.0000
     15 H1          5.3500    1.1803    4.2561 H         1 <0>         0.0000
     16 H2          5.2308   -0.7131    2.6447 H         1 <0>         0.0000
     17 H3          3.2423    2.1559    5.1634 H         1 <0>         0.0000
     18 H4          3.0482   -1.6204    1.9491 H         1 <0>         0.0000
     19 H5          1.0471    1.2469    4.4507 H         1 <0>         0.0000
     20 H6         -4.2142    0.0161    3.7164 H         1 <0>         0.0000
     21 H7         -4.3984   -1.0716    2.3351 H         1 <0>         0.0000
     22 H8         -4.0704    0.7172    0.7639 H         1 <0>         0.0000
     23 H9         -4.2665    1.8424    2.1357 H         1 <0>         0.0000
     24 H10         0.9733   -1.6123    0.8003 H         1 <0>         0.0000
     25 H11         1.0554   -2.7983    2.1215 H         1 <0>         0.0000
     26 H12        -0.5178   -2.2294    1.5476 H         1 <0>         0.0000
     27 H13         0.0246   -1.1639    3.6779 H         1 <0>         0.0000
     28 H14         0.0612    0.9406    1.6111 H         1 <0>         0.0000
@<TRIPOS>BOND
     1    1    3 ar
     2    1    2 ar
     3    1   15 1
     4    2    4 ar
     5    2   16 1
     6    3    5 ar
     7    3   17 1
     8    4    6 ar
     9    4   18 1
    10    5    6 ar
    11    5   19 1
    12    6   11 1
    13    7   12 2
    14    7   13 1
    15    7   14 1
    16    8    9 1
    17    8   12 1
    18    8   20 1
    19    8   21 1
    20    9   14 1
    21    9   22 1
    22    9   23 1
    23   10   11 1
    24   10   24 1
    25   10   25 1
    26   10   26 1
    27   11   13 1
    28   11   27 1
    29   13   28 1
