@<TRIPOS>MOLECULE
*****
   36    36     0     0     0
SMALL
NO_CHARGES

@<TRIPOS>ATOM
      1 C1          0.0044    2.2860   -1.9477 C.2       1 <0>         0.0000
      2 C2          1.7618    3.4528   -3.0840 C.2       1 <0>         0.0000
      3 C3         -1.3944    0.4598   -1.1360 C.2       1 <0>         0.0000
      4 C4          6.3960    2.0383   -0.5771 C.3       1 <0>         0.0000
      5 C5         -1.3677    2.6222    0.0416 C.3       1 <0>         0.0000
      6 C6         -1.8972   -1.5503   -2.3856 C.3       1 <0>         0.0000
      7 C7         -2.0491    0.6269   -3.5463 C.3       1 <0>         0.0000
      8 C8          5.7786    3.4020   -0.9070 C.3       1 <0>         0.0000
      9 C9          4.6933    3.3008   -1.9877 C.3       1 <0>         0.0000
     10 C10         4.0758    4.6576   -2.3040 C.3       1 <0>         0.0000
     11 N1          0.6532    1.5402   -2.8106 N.2       1 <0>         0.0000
     12 N2          1.6464    2.2240   -3.4650 N.2       1 <0>         0.0000
     13 N3         -1.0621    1.8700   -1.1837 N.am      1 <0>         0.0000
     14 N4         -1.7781   -0.0973   -2.3110 N.am      1 <0>         0.0000
     15 O1         -1.3669   -0.1236   -0.0563 O.2       1 <0>         0.0000
     16 O2          3.7402    3.8997   -4.8851 O.2       1 <0>         0.0000
     17 S1          0.6016    3.9515   -1.8550 S.3       1 <0>         0.0000
     18 S2          2.9805    4.6231   -3.8046 S.o       1 <0>         0.0000
     19 H1          6.8553    1.5902   -1.4650 H         1 <0>         0.0000
     20 H2          7.1699    2.1289    0.1923 H         1 <0>         0.0000
     21 H3          5.6365    1.3397   -0.2088 H         1 <0>         0.0000
     22 H4         -1.6279    3.6516   -0.2216 H         1 <0>         0.0000
     23 H5         -0.5257    2.6198    0.7417 H         1 <0>         0.0000
     24 H6         -2.2220    2.1552    0.5273 H         1 <0>         0.0000
     25 H7         -2.9383   -1.8398   -2.5719 H         1 <0>         0.0000
     26 H8         -1.5697   -1.9877   -1.4446 H         1 <0>         0.0000
     27 H9         -1.2734   -1.9263   -3.2042 H         1 <0>         0.0000
     28 H10        -1.2205    0.5228   -4.2534 H         1 <0>         0.0000
     29 H11        -2.2087    1.6847   -3.3416 H         1 <0>         0.0000
     30 H12        -2.9628    0.2205   -3.9932 H         1 <0>         0.0000
     31 H13         5.3539    3.8433    0.0044 H         1 <0>         0.0000
     32 H14         6.5656    4.0884   -1.2451 H         1 <0>         0.0000
     33 H15         5.1180    2.8858   -2.9079 H         1 <0>         0.0000
     34 H16         3.9120    2.6056   -1.6620 H         1 <0>         0.0000
     35 H17         3.4757    5.0626   -1.4814 H         1 <0>         0.0000
     36 H18         4.8406    5.3959   -2.5691 H         1 <0>         0.0000
@<TRIPOS>BOND
     1    1   11 2
     2    1   13 1
     3    1   17 1
     4    2   12 2
     5    2   17 1
     6    2   18 1
     7    3   13 am
     8    3   14 am
     9    3   15 2
    10    4    8 1
    11    4   19 1
    12    4   20 1
    13    4   21 1
    14    5   13 1
    15    5   22 1
    16    5   23 1
    17    5   24 1
    18    6   14 1
    19    6   25 1
    20    6   26 1
    21    6   27 1
    22    7   14 1
    23    7   28 1
    24    7   29 1
    25    7   30 1
    26    8    9 1
    27    8   31 1
    28    8   32 1
    29    9   10 1
    30    9   33 1
    31    9   34 1
    32   10   18 1
    33   10   35 1
    34   10   36 1
    35   11   12 1
    36   16   18 2
