@<TRIPOS>MOLECULE
*****
   28    29     0     0     0
SMALL
NO_CHARGES

@<TRIPOS>ATOM
      1 C1          3.6173    0.8109    3.8511 C.ar      1 <0>         0.0000
      2 C2          3.4431    0.2954    2.5622 C.ar      1 <0>         0.0000
      3 C3          2.5853    0.6896    4.7869 C.ar      1 <0>         0.0000
      4 C4          2.2459   -0.3375    2.2159 C.ar      1 <0>         0.0000
      5 C5          1.3878    0.0584    4.4365 C.ar      1 <0>         0.0000
      6 C6          1.2047   -0.4648    3.1480 C.ar      1 <0>         0.0000
      7 C7         -1.6634    0.8142    2.8564 C.2       1 <0>         0.0000
      8 C8         -2.6990    1.9778    4.4156 C.3       1 <0>         0.0000
      9 C9         -2.7753    2.7561    3.0756 C.3       1 <0>         0.0000
     10 C10        -0.0080   -2.3499    1.9028 C.3       1 <0>         0.0000
     11 C11        -0.1306   -1.0999    2.7771 C.3       1 <0>         0.0000
     12 N1         -1.8604    0.8075    4.1243 N.2       1 <0>         0.0000
     13 N2         -1.0208   -0.1337    2.1063 N.pl3     1 <0>         0.0000
     14 O1         -2.1805    1.8466    2.1108 O.3       1 <0>         0.0000
     15 H1          4.5492    1.3004    4.1228 H         1 <0>         0.0000
     16 H2          4.2412    0.3823    1.8289 H         1 <0>         0.0000
     17 H3          2.7115    1.0886    5.7904 H         1 <0>         0.0000
     18 H4          2.1326   -0.7383    1.2114 H         1 <0>         0.0000
     19 H5          0.5765   -0.0148    5.1548 H         1 <0>         0.0000
     20 H6         -2.2533    2.5813    5.2133 H         1 <0>         0.0000
     21 H7         -3.6901    1.6564    4.7596 H         1 <0>         0.0000
     22 H8         -3.7918    2.9792    2.7441 H         1 <0>         0.0000
     23 H9         -2.1827    3.6760    3.0778 H         1 <0>         0.0000
     24 H10         0.3984   -2.1184    0.9123 H         1 <0>         0.0000
     25 H11         0.6553   -3.0811    2.3735 H         1 <0>         0.0000
     26 H12        -0.9935   -2.8019    1.7608 H         1 <0>         0.0000
     27 H13        -0.6442   -1.3693    3.7016 H         1 <0>         0.0000
     28 H14        -0.6853    0.2217    1.2171 H         1 <0>         0.0000
@<TRIPOS>BOND
     1    1    3 ar
     2    1    2 ar
     3    1   15 1
     4    2    4 ar
     5    2   16 1
     6    3    5 ar
     7    3   17 1
     8    4    6 ar
     9    4   18 1
    10    5    6 ar
    11    5   19 1
    12    6   11 1
    13    7   12 2
    14    7   13 1
    15    7   14 1
    16    8    9 1
    17    8   12 1
    18    8   20 1
    19    8   21 1
    20    9   14 1
    21    9   22 1
    22    9   23 1
    23   10   11 1
    24   10   24 1
    25   10   25 1
    26   10   26 1
    27   11   13 1
    28   11   27 1
    29   13   28 1
