@<TRIPOS>MOLECULE
*****
   36    36     0     0     0
SMALL
NO_CHARGES

@<TRIPOS>ATOM
      1 C1          0.1843    1.5875   -0.7999 C.2       1 <0>         0.0000
      2 C2          2.4153    2.3271   -1.1334 C.2       1 <0>         0.0000
      3 C3         -1.9419    0.4302   -1.1408 C.2       1 <0>         0.0000
      4 C4          5.9892    7.5109   -3.0937 C.3       1 <0>         0.0000
      5 C5         -1.3300    1.2782    1.0873 C.3       1 <0>         0.0000
      6 C6         -2.9008   -0.0755   -3.3054 C.3       1 <0>         0.0000
      7 C7         -1.9653    2.1805   -2.9303 C.3       1 <0>         0.0000
      8 C8          4.7567    6.6024   -3.0268 C.3       1 <0>         0.0000
      9 C9          4.9983    5.3492   -2.1733 C.3       1 <0>         0.0000
     10 C10         3.7616    4.4570   -2.1115 C.3       1 <0>         0.0000
     11 N1          0.6630    1.2503   -1.9798 N.2       1 <0>         0.0000
     12 N2          1.9519    1.6870   -2.1570 N.2       1 <0>         0.0000
     13 N3         -1.0921    1.3056   -0.3637 N.am      1 <0>         0.0000
     14 N4         -2.2490    0.8575   -2.3922 N.am      1 <0>         0.0000
     15 O1         -2.3782   -0.5953   -0.6262 O.2       1 <0>         0.0000
     16 O2          4.1872    3.5524    0.4074 O.2       1 <0>         0.0000
     17 S1          1.3166    2.4759    0.2254 S.3       1 <0>         0.0000
     18 S2          4.0926    3.0100   -1.0081 S.o       1 <0>         0.0000
     19 H1          6.8444    6.9856   -3.5338 H         1 <0>         0.0000
     20 H2          5.7932    8.3994   -3.7027 H         1 <0>         0.0000
     21 H3          6.2849    7.8481   -2.0940 H         1 <0>         0.0000
     22 H4         -1.1374    2.2708    1.5049 H         1 <0>         0.0000
     23 H5         -0.6980    0.5379    1.5883 H         1 <0>         0.0000
     24 H6         -2.3720    1.0171    1.2597 H         1 <0>         0.0000
     25 H7         -3.9165    0.2640   -3.5421 H         1 <0>         0.0000
     26 H8         -2.9552   -1.0573   -2.8392 H         1 <0>         0.0000
     27 H9         -2.3240   -0.1403   -4.2348 H         1 <0>         0.0000
     28 H10        -1.1123    2.1526   -3.6155 H         1 <0>         0.0000
     29 H11        -1.7493    2.8816   -2.1250 H         1 <0>         0.0000
     30 H12        -2.8518    2.5353   -3.4674 H         1 <0>         0.0000
     31 H13         3.9094    7.1628   -2.6118 H         1 <0>         0.0000
     32 H14         4.4630    6.3034   -4.0412 H         1 <0>         0.0000
     33 H15         5.8433    4.7827   -2.5854 H         1 <0>         0.0000
     34 H16         5.2776    5.6451   -1.1560 H         1 <0>         0.0000
     35 H17         2.9021    4.9809   -1.6816 H         1 <0>         0.0000
     36 H18         3.4879    4.0424   -3.0871 H         1 <0>         0.0000
@<TRIPOS>BOND
     1    1   11 2
     2    1   13 1
     3    1   17 1
     4    2   12 2
     5    2   17 1
     6    2   18 1
     7    3   13 am
     8    3   14 am
     9    3   15 2
    10    4    8 1
    11    4   19 1
    12    4   20 1
    13    4   21 1
    14    5   13 1
    15    5   22 1
    16    5   23 1
    17    5   24 1
    18    6   14 1
    19    6   25 1
    20    6   26 1
    21    6   27 1
    22    7   14 1
    23    7   28 1
    24    7   29 1
    25    7   30 1
    26    8    9 1
    27    8   31 1
    28    8   32 1
    29    9   10 1
    30    9   33 1
    31    9   34 1
    32   10   18 1
    33   10   35 1
    34   10   36 1
    35   11   12 1
    36   16   18 2
