@<TRIPOS>MOLECULE
*****
   28    29     0     0     0
SMALL
NO_CHARGES

@<TRIPOS>ATOM
      1 C1          4.3357    0.8740    4.2926 C.ar      1 <0>         0.0000
      2 C2          4.2227    0.1787    3.0826 C.ar      1 <0>         0.0000
      3 C3          3.2104    1.0249    5.1074 C.ar      1 <0>         0.0000
      4 C4          2.9975   -0.3635    2.6871 C.ar      1 <0>         0.0000
      5 C5          1.9834    0.4839    4.7079 C.ar      1 <0>         0.0000
      6 C6          1.8597   -0.2125    3.4978 C.ar      1 <0>         0.0000
      7 C7          0.2532    0.1083    0.7467 C.2       1 <0>         0.0000
      8 C8          1.0546   -0.2061   -1.2856 C.3       1 <0>         0.0000
      9 C9          0.2485    1.1178   -1.2667 C.3       1 <0>         0.0000
     10 C10         0.5300   -2.2583    2.7225 C.3       1 <0>         0.0000
     11 C11         0.5011   -0.7709    3.0901 C.3       1 <0>         0.0000
     12 N1          1.0555   -0.6648    0.1094 N.2       1 <0>         0.0000
     13 N2         -0.1638    0.0410    2.0477 N.pl3     1 <0>         0.0000
     14 O1         -0.3389    1.1465    0.0602 O.3       1 <0>         0.0000
     15 H1          5.2923    1.2908    4.5977 H         1 <0>         0.0000
     16 H2          5.0949    0.0566    2.4448 H         1 <0>         0.0000
     17 H3          3.2865    1.5585    6.0516 H         1 <0>         0.0000
     18 H4          2.9124   -0.8882    1.7415 H         1 <0>         0.0000
     19 H5          1.1119    0.6017    5.3501 H         1 <0>         0.0000
     20 H6          0.5880   -0.9615   -1.9305 H         1 <0>         0.0000
     21 H7          2.0790   -0.0563   -1.6424 H         1 <0>         0.0000
     22 H8          0.8794    2.0056   -1.3745 H         1 <0>         0.0000
     23 H9         -0.5640    1.1585   -1.9953 H         1 <0>         0.0000
     24 H10         1.1546   -2.4450    1.8494 H         1 <0>         0.0000
     25 H11         0.9210   -2.8291    3.5701 H         1 <0>         0.0000
     26 H12        -0.4835   -2.6057    2.4993 H         1 <0>         0.0000
     27 H13        -0.1596   -0.6672    3.9570 H         1 <0>         0.0000
     28 H14        -0.5231    0.9296    2.3764 H         1 <0>         0.0000
@<TRIPOS>BOND
     1    1    3 ar
     2    1    2 ar
     3    1   15 1
     4    2    4 ar
     5    2   16 1
     6    3    5 ar
     7    3   17 1
     8    4    6 ar
     9    4   18 1
    10    5    6 ar
    11    5   19 1
    12    6   11 1
    13    7   12 2
    14    7   13 1
    15    7   14 1
    16    8    9 1
    17    8   12 1
    18    8   20 1
    19    8   21 1
    20    9   14 1
    21    9   22 1
    22    9   23 1
    23   10   11 1
    24   10   24 1
    25   10   25 1
    26   10   26 1
    27   11   13 1
    28   11   27 1
    29   13   28 1
