@<TRIPOS>MOLECULE
*****
   19    20     0     0     0
SMALL
NO_CHARGES

@<TRIPOS>ATOM
      1 C1         -0.5508    2.1134    3.1644 C.2       1 <0>         0.0000
      2 C2         -1.0538    1.3869    2.0588 C.2       1 <0>         0.0000
      3 C3          0.8125    1.9313    3.1529 C.2       1 <0>         0.0000
      4 C4          0.0381    0.8127    1.4504 C.2       1 <0>         0.0000
      5 C5         -0.1733   -1.5041    0.4993 C.2       1 <0>         0.0000
      6 C6         -0.6668    0.4889   -1.0574 C.3       1 <0>         0.0000
      7 C7          0.8187    0.3342   -1.0096 C.3       1 <0>         0.0000
      8 C8         -0.0146   -0.0786    0.1944 C.3       1 <0>         0.0000
      9 O1         -1.2437   -2.0825    0.6133 O.2       1 <0>         0.0000
     10 O2          1.1796    1.1397    2.1111 O.3       1 <0>         0.0000
     11 O3          1.0355   -2.1006    0.6420 O.3       1 <0>         0.0000
     12 H1         -1.1117    2.6968    3.8802 H         1 <0>         0.0000
     13 H2         -2.0853    1.2966    1.7488 H         1 <0>         0.0000
     14 H3          1.6186    2.2787    3.7825 H         1 <0>         0.0000
     15 H4         -1.0695    1.4945   -1.0228 H         1 <0>         0.0000
     16 H5         -1.2217   -0.1850   -1.7000 H         1 <0>         0.0000
     17 H6          1.2632   -0.4444   -1.6189 H         1 <0>         0.0000
     18 H7          1.4170    1.2354   -0.9425 H         1 <0>         0.0000
     19 H8          0.9506   -3.0558    0.8486 H         1 <0>         0.0000
@<TRIPOS>BOND
     1    1    2 1
     2    1    3 2
     3    1   12 1
     4    2    4 2
     5    2   13 1
     6    3   10 1
     7    3   14 1
     8    4    8 1
     9    4   10 1
    10    5    8 1
    11    5    9 2
    12    5   11 1
    13    6    7 1
    14    6    8 1
    15    6   15 1
    16    6   16 1
    17    7    8 1
    18    7   17 1
    19    7   18 1
    20   11   19 1
