@<TRIPOS>MOLECULE
*****
   34    34     0     0     0
SMALL
NO_CHARGES

@<TRIPOS>ATOM
      1 C1          5.0230    1.8688   -0.2077 C.ar      1 <0>         0.0000
      2 C2          4.9079    1.0931    0.9459 C.ar      1 <0>         0.0000
      3 C3          4.2249    1.5911   -1.3174 C.ar      1 <0>         0.0000
      4 C4          3.9946    0.0397    0.9897 C.ar      1 <0>         0.0000
      5 C5          3.3115    0.5377   -1.2735 C.ar      1 <0>         0.0000
      6 C6          3.1964   -0.2380   -0.1199 C.ar      1 <0>         0.0000
      7 C7          0.8634   -0.5808    3.3375 C.3       1 <0>         0.0000
      8 C8         -0.4111   -0.4312    1.3063 C.3       1 <0>         0.0000
      9 C9          1.7432   -3.5480   -1.0113 C.3       1 <0>         0.0000
     10 C10         3.6938   -3.2200    0.3525 C.3       1 <0>         0.0000
     11 C11         1.6567   -1.6543    1.3398 C.3       1 <0>         0.0000
     12 C12         2.2020   -1.3850   -0.0714 C.3       1 <0>         0.0000
     13 N1          0.9327   -0.5035    1.8787 N.3       1 <0>         0.0000
     14 N2          2.7933   -2.6102   -0.6224 N.3       1 <0>         0.0000
     15 H1          5.7350    2.6882   -0.2425 H         1 <0>         0.0000
     16 H2          5.5299    1.3083    1.8096 H         1 <0>         0.0000
     17 H3          4.3151    2.1943   -2.2161 H         1 <0>         0.0000
     18 H4          3.9117   -0.5592    1.8928 H         1 <0>         0.0000
     19 H5          2.6936    0.3288   -2.1429 H         1 <0>         0.0000
     20 H6          1.8705   -0.6345    3.7591 H         1 <0>         0.0000
     21 H7          0.3061   -1.4705    3.6428 H         1 <0>         0.0000
     22 H8          0.3603    0.3029    3.7393 H         1 <0>         0.0000
     23 H9         -0.3525   -0.3737    0.2162 H         1 <0>         0.0000
     24 H10        -0.9331    0.4548    1.6779 H         1 <0>         0.0000
     25 H11        -0.9874   -1.3187    1.5814 H         1 <0>         0.0000
     26 H12         1.0751   -3.0825   -1.7406 H         1 <0>         0.0000
     27 H13         1.1579   -3.8440   -0.1366 H         1 <0>         0.0000
     28 H14         2.1829   -4.4436   -1.4583 H         1 <0>         0.0000
     29 H15         4.4755   -2.5108    0.6370 H         1 <0>         0.0000
     30 H16         4.1645   -4.1105   -0.0729 H         1 <0>         0.0000
     31 H17         3.1395   -3.5109    1.2488 H         1 <0>         0.0000
     32 H18         0.9452   -2.4878    1.3252 H         1 <0>         0.0000
     33 H19         2.4478   -1.9066    2.0540 H         1 <0>         0.0000
     34 H20         1.3499   -1.1294   -0.7148 H         1 <0>         0.0000
@<TRIPOS>BOND
     1    1    3 ar
     2    1    2 ar
     3    1   15 1
     4    2    4 ar
     5    2   16 1
     6    3    5 ar
     7    3   17 1
     8    4    6 ar
     9    4   18 1
    10    5    6 ar
    11    5   19 1
    12    6   12 1
    13    7   13 1
    14    7   20 1
    15    7   21 1
    16    7   22 1
    17    8   13 1
    18    8   23 1
    19    8   24 1
    20    8   25 1
    21    9   14 1
    22    9   26 1
    23    9   27 1
    24    9   28 1
    25   10   14 1
    26   10   29 1
    27   10   30 1
    28   10   31 1
    29   11   12 1
    30   11   13 1
    31   11   32 1
    32   11   33 1
    33   12   14 1
    34   12   34 1
