@<TRIPOS>MOLECULE
*****
   20    20     0     0     0
SMALL
NO_CHARGES

@<TRIPOS>ATOM
      1 C1         -1.7309    3.0668    1.5136 C.2       1 <0>         0.0000
      2 C2         -1.0813    3.7779    2.5061 C.2       1 <0>         0.0000
      3 C3         -0.4751    1.6600    2.5242 C.2       1 <0>         0.0000
      4 C4          0.4607   -0.9925    0.6576 C.3       1 <0>         0.0000
      5 C5          2.2384    0.6611    1.1461 C.3       1 <0>         0.0000
      6 N1         -1.3408    1.7452    1.5336 N.2       1 <0>         0.0000
      7 N2         -0.2721    2.8625    3.1417 N.pl3     1 <0>         0.0000
      8 N3          1.2702   -0.3058    1.6810 N.pl3     1 <0>         0.0000
      9 O1          1.4203    0.7487    3.9889 O.2       1 <0>         0.0000
     10 O2         -0.4904   -0.8485    3.4114 O.2       1 <0>         0.0000
     11 S1          0.4397    0.2096    3.0388 S.o2      1 <0>         0.0000
     12 H1         -2.4521    3.4315    0.7940 H         1 <0>         0.0000
     13 H2         -1.1274    4.8150    2.8061 H         1 <0>         0.0000
     14 H3         -0.2175   -1.6922    1.1436 H         1 <0>         0.0000
     15 H4          1.1489   -1.5537    0.0197 H         1 <0>         0.0000
     16 H5         -0.1152   -0.2850    0.0488 H         1 <0>         0.0000
     17 H6          2.8390    1.0669    1.9600 H         1 <0>         0.0000
     18 H7          1.7478    1.4784    0.5977 H         1 <0>         0.0000
     19 H8          2.8997    0.1253    0.4606 H         1 <0>         0.0000
     20 H9          0.3615    3.0076    3.9203 H         1 <0>         0.0000
@<TRIPOS>BOND
     1    1    2 2
     2    1    6 1
     3    1   12 1
     4    2    7 1
     5    2   13 1
     6    3    6 2
     7    3    7 1
     8    3   11 1
     9    4    8 1
    10    4   14 1
    11    4   15 1
    12    4   16 1
    13    5    8 1
    14    5   17 1
    15    5   18 1
    16    5   19 1
    17    7   20 1
    18    8   11 1
    19    9   11 2
    20   10   11 2
