@<TRIPOS>MOLECULE
*****
   54    56     0     0     0
SMALL
NO_CHARGES

@<TRIPOS>ATOM
      1 C1          0.6539  -10.5676    3.1797 C.ar      1 <0>         0.0000
      2 C2          0.0466  -10.6086    4.4557 C.ar      1 <0>         0.0000
      3 C3          0.4197   -9.4978    2.3389 C.ar      1 <0>         0.0000
      4 C4         -0.7629   -9.5720    4.8718 C.ar      1 <0>         0.0000
      5 C5         -0.6096   -6.9218   -2.8798 C.ar      1 <0>         0.0000
      6 C6          1.5395   -6.5328   -1.8744 C.ar      1 <0>         0.0000
      7 C7         -1.4881   -6.2704    2.2934 C.ar      1 <0>         0.0000
      8 C8          0.0031   -7.1940   -4.1011 C.ar      1 <0>         0.0000
      9 C9          2.1730   -6.8051   -3.0906 C.ar      1 <0>         0.0000
     10 C10        -2.0375   -6.2833    3.5954 C.ar      1 <0>         0.0000
     11 C11        -0.4300   -8.4251    2.7212 C.ar      1 <0>         0.0000
     12 C12        -1.0178   -8.4546    4.0311 C.ar      1 <0>         0.0000
     13 C13         0.1464   -6.5835   -1.7477 C.ar      1 <0>         0.0000
     14 C14        -0.7024   -7.3198    1.8350 C.ar      1 <0>         0.0000
     15 C15         1.4005   -7.1373   -4.2147 C.ar      1 <0>         0.0000
     16 C16        -1.8230   -7.3485    4.4357 C.ar      1 <0>         0.0000
     17 C17         5.0283   -8.0249   -9.8555 C.3       1 <0>         0.0000
     18 C18         7.1337   -9.1592   -6.9645 C.3       1 <0>         0.0000
     19 C19        -0.5167   -6.3022   -0.4199 C.3       1 <0>         0.0000
     20 C20         5.4725   -7.2373   -8.6108 C.3       1 <0>         0.0000
     21 C21         5.6063   -9.1175   -7.0139 C.3       1 <0>         0.0000
     22 C22         3.6230   -7.7199   -7.0801 C.3       1 <0>         0.0000
     23 C23         3.3332   -7.3800   -5.6206 C.3       1 <0>         0.0000
     24 N1         -0.1364   -7.3186    0.5608 N.pl3     1 <0>         0.0000
     25 N2          5.0674   -7.7840   -7.3097 N.3       1 <0>         0.0000
     26 O1          1.9131   -7.4192   -5.4497 O.3       1 <0>         0.0000
     27 Cl1        -2.5624   -7.3245    6.0371 Cl        1 <0>         0.0000
     28 H1          1.3137  -11.3718    2.8654 H         1 <0>         0.0000
     29 H2          0.2287  -11.4528    5.1155 H         1 <0>         0.0000
     30 H3          0.9268   -9.4691    1.3796 H         1 <0>         0.0000
     31 H4         -1.2144   -9.5975    5.8574 H         1 <0>         0.0000
     32 H5         -1.6939   -6.9724   -2.8068 H         1 <0>         0.0000
     33 H6          2.1433   -6.2790   -1.0063 H         1 <0>         0.0000
     34 H7         -1.7083   -5.4245    1.6532 H         1 <0>         0.0000
     35 H8         -0.5808   -7.4539   -4.9792 H         1 <0>         0.0000
     36 H9          3.2539   -6.7508   -3.1512 H         1 <0>         0.0000
     37 H10        -2.6502   -5.4497    3.9240 H         1 <0>         0.0000
     38 H11         5.4717   -9.0253   -9.8852 H         1 <0>         0.0000
     39 H12         3.9395   -8.1383   -9.8925 H         1 <0>         0.0000
     40 H13         5.3403   -7.4980  -10.7640 H         1 <0>         0.0000
     41 H14         7.5849   -9.0107   -7.9503 H         1 <0>         0.0000
     42 H15         7.5168   -8.3845   -6.2925 H         1 <0>         0.0000
     43 H16         7.4683  -10.1346   -6.5963 H         1 <0>         0.0000
     44 H17        -0.1984   -5.3246   -0.0385 H         1 <0>         0.0000
     45 H18        -1.6088   -6.2537   -0.5533 H         1 <0>         0.0000
     46 H19         5.0779   -6.2168   -8.6672 H         1 <0>         0.0000
     47 H20         6.5621   -7.1361   -8.6141 H         1 <0>         0.0000
     48 H21         5.2211   -9.4139   -6.0329 H         1 <0>         0.0000
     49 H22         5.2367   -9.8772   -7.7266 H         1 <0>         0.0000
     50 H23         3.1037   -8.6556   -7.3438 H         1 <0>         0.0000
     51 H24         3.1878   -6.9336   -7.7040 H         1 <0>         0.0000
     52 H25         3.7219   -6.3813   -5.3888 H         1 <0>         0.0000
     53 H26         3.8108   -8.1010   -4.9457 H         1 <0>         0.0000
     54 H27        -0.0516   -8.2364    0.1413 H         1 <0>         0.0000
@<TRIPOS>BOND
     1    1    2 ar
     2    1    3 ar
     3    1   28 1
     4    2    4 ar
     5    2   29 1
     6    3   11 ar
     7    3   30 1
     8    4   12 ar
     9    4   31 1
    10    5    8 ar
    11    5   13 ar
    12    5   32 1
    13    6    9 ar
    14    6   13 ar
    15    6   33 1
    16    7   10 ar
    17    7   14 ar
    18    7   34 1
    19    8   15 ar
    20    8   35 1
    21    9   15 ar
    22    9   36 1
    23   10   16 ar
    24   10   37 1
    25   11   12 ar
    26   11   14 ar
    27   12   16 ar
    28   13   19 1
    29   14   24 1
    30   15   26 1
    31   16   27 1
    32   17   20 1
    33   17   38 1
    34   17   39 1
    35   17   40 1
    36   18   21 1
    37   18   41 1
    38   18   42 1
    39   18   43 1
    40   19   24 1
    41   19   44 1
    42   19   45 1
    43   20   25 1
    44   20   46 1
    45   20   47 1
    46   21   25 1
    47   21   48 1
    48   21   49 1
    49   22   23 1
    50   22   25 1
    51   22   50 1
    52   22   51 1
    53   23   26 1
    54   23   52 1
    55   23   53 1
    56   24   54 1
