@<TRIPOS>MOLECULE
*****
   74    78     0     0     0
SMALL
NO_CHARGES

@<TRIPOS>ATOM
      1 C1          3.4530   -2.9594   -3.4312 C.ar      1 <0>         0.0000
      2 C2          3.5784   -3.1173   -2.0459 C.ar      1 <0>         0.0000
      3 C3          2.7248   -1.8764   -3.9344 C.ar      1 <0>         0.0000
      4 C4         -4.5850  -17.3927   -0.2681 C.ar      1 <0>         0.0000
      5 C5         -5.9731  -17.5160   -0.3708 C.ar      1 <0>         0.0000
      6 C6          2.9750   -2.2088   -1.1762 C.ar      1 <0>         0.0000
      7 C7          2.1297   -0.9625   -3.0607 C.ar      1 <0>         0.0000
      8 C8          0.4669   -2.4939    1.8379 C.ar      1 <0>         0.0000
      9 C9         -0.1669   -2.6864   -0.4720 C.ar      1 <0>         0.0000
     10 C10        -0.8972    0.5020    1.8167 C.ar      1 <0>         0.0000
     11 C11         0.0583   -3.8026    2.0674 C.ar      1 <0>         0.0000
     12 C12        -0.5908   -4.0007   -0.2582 C.ar      1 <0>         0.0000
     13 C13        -1.3330    1.4438    2.7479 C.ar      1 <0>         0.0000
     14 C14        -3.9990  -16.1655   -0.5742 C.ar      1 <0>         0.0000
     15 C15         0.8975    2.3889    2.7883 C.ar      1 <0>         0.0000
     16 C16        -6.7069  -16.3989   -0.7784 C.ar      1 <0>         0.0000
     17 C17         0.3816   -1.9113    0.5584 C.ar      1 <0>         0.0000
     18 C18         2.2321   -1.1188   -1.6668 C.ar      1 <0>         0.0000
     19 C19         0.4221    0.4930    1.3383 C.ar      1 <0>         0.0000
     20 C20         1.3343    1.4493    1.8517 C.ar      1 <0>         0.0000
     21 C21        -0.4705   -4.5700    1.0172 C.ar      1 <0>         0.0000
     22 C22        -0.4286    2.3959    3.2326 C.ar      1 <0>         0.0000
     23 C23        -4.8218  -15.0997   -0.9714 C.ar      1 <0>         0.0000
     24 C24         0.8460   -0.5173    0.3320 C.2       1 <0>         0.0000
     25 C25         1.6042   -0.1456   -0.7367 C.2       1 <0>         0.0000
     26 C26         2.7801    1.4301    1.4107 C.3       1 <0>         0.0000
     27 C27         1.8877    1.3263   -0.9786 C.3       1 <0>         0.0000
     28 C28         2.9828    1.8864   -0.0487 C.3       1 <0>         0.0000
     29 C29        -4.2424  -13.7494   -1.2888 C.3       1 <0>         0.0000
     30 C30        -2.2069   -9.0290   -0.1377 C.3       1 <0>         0.0000
     31 C31        -1.6649   -8.0437    0.9039 C.3       1 <0>         0.0000
     32 C32        -2.5237  -10.4025    0.4678 C.3       1 <0>         0.0000
     33 C33        -1.3625   -6.6807    0.2991 C.3       1 <0>         0.0000
     34 C34        -3.0542  -11.3823   -0.5764 C.3       1 <0>         0.0000
     35 N1         -6.1553  -15.2139   -1.0730 N.ar      1 <0>         0.0000
     36 O1         -4.6737  -12.6377    1.1709 O.2       1 <0>         0.0000
     37 O2         -0.7831    3.3530    4.1545 O.3       1 <0>         0.0000
     38 O3         -0.8449   -5.8474    1.3382 O.3       1 <0>         0.0000
     39 S1         -3.5205  -12.9701    0.2435 S.o       1 <0>         0.0000
     40 H1          3.9212   -3.6682   -4.1095 H         1 <0>         0.0000
     41 H2          4.1501   -3.9495   -1.6424 H         1 <0>         0.0000
     42 H3          2.6189   -1.7429   -5.0083 H         1 <0>         0.0000
     43 H4         -3.9729  -18.2346    0.0449 H         1 <0>         0.0000
     44 H5         -6.4777  -18.4501   -0.1419 H         1 <0>         0.0000
     45 H6          3.0721   -2.3412   -0.1029 H         1 <0>         0.0000
     46 H7          1.5562   -0.1329   -3.4667 H         1 <0>         0.0000
     47 H8          0.8684   -1.9100    2.6620 H         1 <0>         0.0000
     48 H9         -0.2632   -2.2581   -1.4647 H         1 <0>         0.0000
     49 H10        -1.5967   -0.2427    1.4476 H         1 <0>         0.0000
     50 H11         0.1380   -4.2530    3.0528 H         1 <0>         0.0000
     51 H12        -1.0102   -4.5613   -1.0859 H         1 <0>         0.0000
     52 H13        -2.3650    1.4354    3.0956 H         1 <0>         0.0000
     53 H14        -2.9232  -16.0277   -0.5007 H         1 <0>         0.0000
     54 H15         1.5860    3.1239    3.1969 H         1 <0>         0.0000
     55 H16        -7.7903  -16.4556   -0.8720 H         1 <0>         0.0000
     56 H17         3.3844    2.0501    2.0802 H         1 <0>         0.0000
     57 H18         3.1535    0.4038    1.5018 H         1 <0>         0.0000
     58 H19         2.1880    1.4903   -2.0170 H         1 <0>         0.0000
     59 H20         0.9696    1.8999   -0.8129 H         1 <0>         0.0000
     60 H21         2.9639    2.9813   -0.1103 H         1 <0>         0.0000
     61 H22         3.9740    1.5610   -0.3855 H         1 <0>         0.0000
     62 H23        -3.4226  -13.8147   -2.0123 H         1 <0>         0.0000
     63 H24        -5.0289  -13.0873   -1.6569 H         1 <0>         0.0000
     64 H25        -3.1171   -8.6186   -0.5949 H         1 <0>         0.0000
     65 H26        -1.4768   -9.1440   -0.9504 H         1 <0>         0.0000
     66 H27        -2.3899   -7.9184    1.7160 H         1 <0>         0.0000
     67 H28        -0.7476   -8.4394    1.3552 H         1 <0>         0.0000
     68 H29        -1.6209  -10.8144    0.9361 H         1 <0>         0.0000
     69 H30        -3.2722  -10.2945    1.2599 H         1 <0>         0.0000
     70 H31        -2.2738   -6.2324   -0.1208 H         1 <0>         0.0000
     71 H32        -0.6233   -6.7700   -0.5093 H         1 <0>         0.0000
     72 H33        -3.9604  -10.9971   -1.0563 H         1 <0>         0.0000
     73 H34        -2.3045  -11.6093   -1.3433 H         1 <0>         0.0000
     74 H35        -1.7207    3.2419    4.3778 H         1 <0>         0.0000
@<TRIPOS>BOND
     1    1    3 ar
     2    1    2 ar
     3    1   40 1
     4    2    6 ar
     5    2   41 1
     6    3    7 ar
     7    3   42 1
     8    4    5 ar
     9    4   14 ar
    10    4   43 1
    11    5   16 ar
    12    5   44 1
    13    6   18 ar
    14    6   45 1
    15    7   18 ar
    16    7   46 1
    17    8   11 ar
    18    8   17 ar
    19    8   47 1
    20    9   12 ar
    21    9   17 ar
    22    9   48 1
    23   10   13 ar
    24   10   19 ar
    25   10   49 1
    26   11   21 ar
    27   11   50 1
    28   12   21 ar
    29   12   51 1
    30   13   22 ar
    31   13   52 1
    32   14   23 ar
    33   14   53 1
    34   15   20 ar
    35   15   22 ar
    36   15   54 1
    37   16   35 ar
    38   16   55 1
    39   17   24 1
    40   18   25 1
    41   19   20 ar
    42   19   24 1
    43   20   26 1
    44   21   38 1
    45   22   37 1
    46   23   29 1
    47   23   35 ar
    48   24   25 2
    49   25   27 1
    50   26   28 1
    51   26   56 1
    52   26   57 1
    53   27   28 1
    54   27   58 1
    55   27   59 1
    56   28   60 1
    57   28   61 1
    58   29   39 1
    59   29   62 1
    60   29   63 1
    61   30   31 1
    62   30   32 1
    63   30   64 1
    64   30   65 1
    65   31   33 1
    66   31   66 1
    67   31   67 1
    68   32   34 1
    69   32   68 1
    70   32   69 1
    71   33   38 1
    72   33   70 1
    73   33   71 1
    74   34   39 1
    75   34   72 1
    76   34   73 1
    77   36   39 2
    78   37   74 1
