@<TRIPOS>MOLECULE
*****
   64    65     0     0     0
SMALL
NO_CHARGES

@<TRIPOS>ATOM
      1 C1          3.3530   -1.4954   -4.4205 C.ar      1 <0>         0.0000
      2 C2          4.5575   -0.9485   -3.9719 C.ar      1 <0>         0.0000
      3 C3          3.9452   -0.9188   -6.6867 C.ar      1 <0>         0.0000
      4 C4          3.0357   -1.4878   -5.7850 C.ar      1 <0>         0.0000
      5 C5          1.7563   -2.0708   -6.2954 C.ar      1 <0>         0.0000
      6 C6          5.1632   -0.3619   -6.2732 C.ar      1 <0>         0.0000
      7 C7          0.5965   -1.2747   -6.3571 C.ar      1 <0>         0.0000
      8 C8          1.7340   -3.3988   -6.7615 C.ar      1 <0>         0.0000
      9 C9          5.4316   -0.4008   -4.9036 C.ar      1 <0>         0.0000
     10 C10        -0.5565   -1.8611   -6.9169 C.ar      1 <0>         0.0000
     11 C11         0.5344   -3.8771   -7.3248 C.ar      1 <0>         0.0000
     12 C12         7.2884   -0.7819   -7.5853 C.3       1 <0>         0.0000
     13 C13        -0.2864    4.6769   -5.6990 C.3       1 <0>         0.0000
     14 C14        -2.9493   -1.7991   -6.1627 C.3       1 <0>         0.0000
     15 C15        -2.3355   -1.0870   -8.5204 C.3       1 <0>         0.0000
     16 C16         0.1102   -5.1289   -9.4509 C.3       1 <0>         0.0000
     17 C17        -0.7076   -6.0649   -7.2352 C.3       1 <0>         0.0000
     18 C18         6.1588    0.2105   -7.2540 C.3       1 <0>         0.0000
     19 C19         0.6185    0.1658   -5.8905 C.3       1 <0>         0.0000
     20 C20         2.9754   -4.2628   -6.6875 C.3       1 <0>         0.0000
     21 C21        -0.3822    3.1861   -6.0424 C.3       1 <0>         0.0000
     22 C22         0.8526    1.1552   -7.0484 C.3       1 <0>         0.0000
     23 C23         0.9290    2.6224   -6.6061 C.3       1 <0>         0.0000
     24 C24        -1.8852   -1.1291   -7.0501 C.3       1 <0>         0.0000
     25 C25         0.3944   -5.2596   -7.9438 C.3       1 <0>         0.0000
     26 N1         -0.5649   -3.1172   -7.3813 N.ar      1 <0>         0.0000
     27 O1          3.6615   -4.3647   -7.9477 O.3       1 <0>         0.0000
     28 F1          6.6057    0.1266   -4.4559 F         1 <0>         0.0000
     29 H1          2.6573   -1.9309   -3.7085 H         1 <0>         0.0000
     30 H2          4.8247   -0.9438   -2.9194 H         1 <0>         0.0000
     31 H3          3.6920   -0.8905   -7.7451 H         1 <0>         0.0000
     32 H4          7.8494   -1.0486   -6.6850 H         1 <0>         0.0000
     33 H5          7.9880   -0.3453   -8.3055 H         1 <0>         0.0000
     34 H6          6.8855   -1.7043   -8.0169 H         1 <0>         0.0000
     35 H7         -0.0369    5.2712   -6.5857 H         1 <0>         0.0000
     36 H8         -1.2316    5.0574   -5.2970 H         1 <0>         0.0000
     37 H9          0.4925    4.8590   -4.9495 H         1 <0>         0.0000
     38 H10        -3.0949   -2.8394   -6.4680 H         1 <0>         0.0000
     39 H11        -3.9072   -1.2739   -6.2462 H         1 <0>         0.0000
     40 H12        -2.6478   -1.7935   -5.1093 H         1 <0>         0.0000
     41 H13        -2.4729   -2.1011   -8.9049 H         1 <0>         0.0000
     42 H14        -1.5907   -0.5853   -9.1481 H         1 <0>         0.0000
     43 H15        -3.2826   -0.5445   -8.6151 H         1 <0>         0.0000
     44 H16        -0.8214   -4.5802   -9.6175 H         1 <0>         0.0000
     45 H17         0.0184   -6.1199   -9.9090 H         1 <0>         0.0000
     46 H18         0.9225   -4.5949   -9.9546 H         1 <0>         0.0000
     47 H19        -1.6699   -5.5529   -7.3240 H         1 <0>         0.0000
     48 H20        -0.4868   -6.1885   -6.1690 H         1 <0>         0.0000
     49 H21        -0.8006   -7.0615   -7.6808 H         1 <0>         0.0000
     50 H22         5.6317    0.4890   -8.1726 H         1 <0>         0.0000
     51 H23         6.5933    1.1277   -6.8440 H         1 <0>         0.0000
     52 H24        -0.3153    0.4056   -5.3756 H         1 <0>         0.0000
     53 H25         1.4146    0.3037   -5.1540 H         1 <0>         0.0000
     54 H26         3.6557   -3.8841   -5.9185 H         1 <0>         0.0000
     55 H27         2.7214   -5.2890   -6.4178 H         1 <0>         0.0000
     56 H28        -0.6738    2.6294   -5.1439 H         1 <0>         0.0000
     57 H29        -1.1851    3.0286   -6.7754 H         1 <0>         0.0000
     58 H30         0.0594    1.0363   -7.7975 H         1 <0>         0.0000
     59 H31         1.7888    0.8811   -7.5486 H         1 <0>         0.0000
     60 H32         1.7255    2.7347   -5.8574 H         1 <0>         0.0000
     61 H33         1.2325    3.2332   -7.4668 H         1 <0>         0.0000
     62 H34        -1.7631   -0.0984   -6.7101 H         1 <0>         0.0000
     63 H35         1.3393   -5.7960   -7.8391 H         1 <0>         0.0000
     64 H36         3.9442   -3.4685   -8.1908 H         1 <0>         0.0000
@<TRIPOS>BOND
     1    1    2 ar
     2    1    4 ar
     3    1   29 1
     4    2    9 ar
     5    2   30 1
     6    3    4 ar
     7    3    6 ar
     8    3   31 1
     9    4    5 1
    10    5    7 ar
    11    5    8 ar
    12    6    9 ar
    13    6   18 1
    14    7   10 ar
    15    7   19 1
    16    8   11 ar
    17    8   20 1
    18    9   28 1
    19   10   24 1
    20   10   26 ar
    21   11   25 1
    22   11   26 ar
    23   12   18 1
    24   12   32 1
    25   12   33 1
    26   12   34 1
    27   13   21 1
    28   13   35 1
    29   13   36 1
    30   13   37 1
    31   14   24 1
    32   14   38 1
    33   14   39 1
    34   14   40 1
    35   15   24 1
    36   15   41 1
    37   15   42 1
    38   15   43 1
    39   16   25 1
    40   16   44 1
    41   16   45 1
    42   16   46 1
    43   17   25 1
    44   17   47 1
    45   17   48 1
    46   17   49 1
    47   18   50 1
    48   18   51 1
    49   19   22 1
    50   19   52 1
    51   19   53 1
    52   20   27 1
    53   20   54 1
    54   20   55 1
    55   21   23 1
    56   21   56 1
    57   21   57 1
    58   22   23 1
    59   22   58 1
    60   22   59 1
    61   23   60 1
    62   23   61 1
    63   24   62 1
    64   25   63 1
    65   27   64 1
