@<TRIPOS>MOLECULE
*****
   56    58     0     0     0
SMALL
NO_CHARGES

@<TRIPOS>ATOM
      1 C1          3.1342   -1.0219   -6.9994 C.ar      1 <0>         0.0000
      2 C2          2.4359   -3.3425   -6.9399 C.ar      1 <0>         0.0000
      3 C3          2.9752   -1.0219   -8.3910 C.ar      1 <0>         0.0000
      4 C4          2.2809   -3.3421   -8.3235 C.ar      1 <0>         0.0000
      5 C5          2.8478   -2.1807   -6.2670 C.ar      1 <0>         0.0000
      6 C6          2.5400   -2.1720   -9.0466 C.ar      1 <0>         0.0000
      7 C7         -2.3703   -3.8691   -6.5714 C.3       1 <0>         0.0000
      8 C8         -2.5139   -2.5697   -5.7708 C.3       1 <0>         0.0000
      9 C9         -1.1059   -4.6212   -6.1430 C.3       1 <0>         0.0000
     10 C10        -2.4797   -2.8293   -4.2675 C.3       1 <0>         0.0000
     11 C11        -1.0835   -4.8699   -4.6375 C.3       1 <0>         0.0000
     12 C12         0.7822   -3.4577   -0.6291 C.3       1 <0>         0.0000
     13 C13         0.4558   -3.8346   -2.0720 C.3       1 <0>         0.0000
     14 C14         1.4881   -1.6501   -2.4564 C.3       1 <0>         0.0000
     15 C15         0.6105   -0.6420   -3.2088 C.3       1 <0>         0.0000
     16 C16         3.4667   -0.1247   -1.9030 C.3       1 <0>         0.0000
     17 C17         3.8325   -2.5991   -2.1158 C.3       1 <0>         0.0000
     18 C18        -1.0487   -3.7185   -2.3934 C.3       1 <0>         0.0000
     19 C19         3.3497   -1.1700   -4.1335 C.3       1 <0>         0.0000
     20 C20         3.0244   -1.4029   -2.6444 C.3       1 <0>         0.0000
     21 N1         -1.2163   -3.5636   -3.8824 N.4       1 <0>         0.0000
     22 O1          1.1767   -2.9796   -2.9522 O.3       1 <0>         0.0000
     23 O2          2.9175   -2.2897   -4.9039 O.3       1 <0>         0.0000
     24 S1          0.9633   -1.6449   -0.6561 S.3       1 <0>         0.0000
     25 Cl1         2.3336   -2.1636  -10.7860 Cl        1 <0>         0.0000
     26 H1          3.4941   -0.1206   -6.5169 H         1 <0>         0.0000
     27 H2          2.2730   -4.2480   -6.3619 H         1 <0>         0.0000
     28 H3          3.1976   -0.1250   -8.9603 H         1 <0>         0.0000
     29 H4          1.9748   -4.2447   -8.8434 H         1 <0>         0.0000
     30 H5         -2.3277   -3.6458   -7.6404 H         1 <0>         0.0000
     31 H6         -3.2527   -4.5012   -6.4125 H         1 <0>         0.0000
     32 H7         -1.7102   -1.8714   -6.0361 H         1 <0>         0.0000
     33 H8         -3.4566   -2.0655   -6.0030 H         1 <0>         0.0000
     34 H9         -1.0372   -5.5921   -6.6430 H         1 <0>         0.0000
     35 H10        -0.2126   -4.0547   -6.4311 H         1 <0>         0.0000
     36 H11        -2.4969   -1.9006   -3.6939 H         1 <0>         0.0000
     37 H12        -3.3157   -3.4546   -3.9416 H         1 <0>         0.0000
     38 H13        -1.9176   -5.4989   -4.3143 H         1 <0>         0.0000
     39 H14        -0.1481   -5.3315   -4.3189 H         1 <0>         0.0000
     40 H15        -0.0191   -3.7274    0.0640 H         1 <0>         0.0000
     41 H16         1.7055   -3.9426   -0.3088 H         1 <0>         0.0000
     42 H17         0.8083   -4.8487   -2.2836 H         1 <0>         0.0000
     43 H18        -0.4435   -0.7996   -2.9681 H         1 <0>         0.0000
     44 H19         0.7530   -0.7428   -4.2883 H         1 <0>         0.0000
     45 H20         0.8464    0.3864   -2.9272 H         1 <0>         0.0000
     46 H21         4.5237    0.0719   -2.1057 H         1 <0>         0.0000
     47 H22         2.9052    0.7617   -2.2136 H         1 <0>         0.0000
     48 H23         3.3553   -0.2400   -0.8232 H         1 <0>         0.0000
     49 H24         4.9021   -2.4015   -2.2333 H         1 <0>         0.0000
     50 H25         3.5952   -3.5140   -2.6605 H         1 <0>         0.0000
     51 H26         3.6469   -2.7535   -1.0491 H         1 <0>         0.0000
     52 H27        -1.4627   -2.8242   -1.9237 H         1 <0>         0.0000
     53 H28        -1.6135   -4.5935   -2.0655 H         1 <0>         0.0000
     54 H29         4.4328   -1.0385   -4.2512 H         1 <0>         0.0000
     55 H30         2.8647   -0.2529   -4.4841 H         1 <0>         0.0000
     56 H31        -0.4009   -2.9881   -4.1558 H         1 <0>         0.0000
@<TRIPOS>BOND
     1    1    3 ar
     2    1    5 ar
     3    1   26 1
     4    2    4 ar
     5    2    5 ar
     6    2   27 1
     7    3    6 ar
     8    3   28 1
     9    4    6 ar
    10    4   29 1
    11    5   23 1
    12    6   25 1
    13    7    9 1
    14    7    8 1
    15    7   30 1
    16    7   31 1
    17    8   10 1
    18    8   32 1
    19    8   33 1
    20    9   11 1
    21    9   34 1
    22    9   35 1
    23   10   21 1
    24   10   36 1
    25   10   37 1
    26   11   21 1
    27   11   38 1
    28   11   39 1
    29   12   13 1
    30   12   24 1
    31   12   40 1
    32   12   41 1
    33   13   18 1
    34   13   22 1
    35   13   42 1
    36   14   15 1
    37   14   20 1
    38   14   22 1
    39   14   24 1
    40   15   43 1
    41   15   44 1
    42   15   45 1
    43   16   20 1
    44   16   46 1
    45   16   47 1
    46   16   48 1
    47   17   20 1
    48   17   49 1
    49   17   50 1
    50   17   51 1
    51   18   21 1
    52   18   52 1
    53   18   53 1
    54   19   20 1
    55   19   23 1
    56   19   54 1
    57   19   55 1
    58   21   56 1
