@<TRIPOS>MOLECULE
*****
   56    58     0     0     0
SMALL
NO_CHARGES

@<TRIPOS>ATOM
      1 C1          5.7005   -5.6033    2.8291 C.ar      1 <0>         0.0000
      2 C2          5.9108   -5.8190    4.1784 C.ar      1 <0>         0.0000
      3 C3          2.4679   -1.3439    7.1542 C.ar      1 <0>         0.0000
      4 C4          3.6586   -2.8764    8.6398 C.ar      1 <0>         0.0000
      5 C5          3.5814   -1.3153    6.3084 C.ar      1 <0>         0.0000
      6 C6          4.7685   -2.8440    7.7894 C.ar      1 <0>         0.0000
      7 C7          3.6573   -1.0624   -0.7825 C.ar      1 <0>         0.0000
      8 C8          1.9755   -2.5500    0.0958 C.ar      1 <0>         0.0000
      9 C9          5.7325   -3.2305    3.1353 C.ar      1 <0>         0.0000
     10 C10         5.5996   -4.3087    2.2656 C.ar      1 <0>         0.0000
     11 C11         4.6557   -1.9357   -0.3229 C.ar      1 <0>         0.0000
     12 C12         2.9585   -3.4305    0.5472 C.ar      1 <0>         0.0000
     13 C13         4.3245   -3.1356    0.3359 C.ar      1 <0>         0.0000
     14 C14         6.0525   -4.7384    5.1310 C.ar      1 <0>         0.0000
     15 C15         2.3049   -1.3641   -0.5818 C.ar      1 <0>         0.0000
     16 C16         2.5369   -2.1258    8.3030 C.ar      1 <0>         0.0000
     17 C17         4.7176   -2.0594    6.6333 C.ar      1 <0>         0.0000
     18 C18         5.9737   -3.4297    4.5061 C.ar      1 <0>         0.0000
     19 C19         2.3170    0.7523   -2.8447 C.2       1 <0>         0.0000
     20 C20         6.1005   -1.5424   -0.5697 C.3       1 <0>         0.0000
     21 C21         2.5404   -4.6974    1.2616 C.3       1 <0>         0.0000
     22 C22         1.9067    1.6742   -0.4330 C.3       1 <0>         0.0000
     23 C23        -0.0084    1.1046   -1.9567 C.3       1 <0>         0.0000
     24 C24         5.3913   -4.1299    0.7670 C.3       1 <0>         0.0000
     25 C25         1.4152    0.7342   -1.5357 C.3       1 <0>         0.0000
     26 O1          6.2028   -4.9380    6.3769 O.3       1 <0>         0.0000
     27 O2          1.9873   -0.0805   -3.7252 O.co2     1 <0>         0.0000
     28 O3          3.2275    1.6284   -2.8640 O.co2     1 <0>         0.0000
     29 O4          5.9315   -0.7917    4.6763 O.2       1 <0>         0.0000
     30 O5          7.3509   -2.0366    6.3721 O.2       1 <0>         0.0000
     31 O6          1.2447   -0.6096   -0.9824 O.3       1 <0>         0.0000
     32 F1          1.4506   -2.1561    9.1413 F         1 <0>         0.0000
     33 S1          6.1449   -1.9927    5.5209 S.o2      1 <0>         0.0000
     34 H1          5.5864   -6.4654    2.1685 H         1 <0>         0.0000
     35 H2          5.9610   -6.8284    4.5835 H         1 <0>         0.0000
     36 H3          1.5675   -0.7785    6.9323 H         1 <0>         0.0000
     37 H4          3.6541   -3.4797    9.5432 H         1 <0>         0.0000
     38 H5          3.5812   -0.7180    5.4019 H         1 <0>         0.0000
     39 H6          5.6536   -3.4405    7.9770 H         1 <0>         0.0000
     40 H7          3.9433   -0.1632   -1.3159 H         1 <0>         0.0000
     41 H8          0.9220   -2.7709    0.2531 H         1 <0>         0.0000
     42 H9          5.6419   -2.2125    2.7654 H         1 <0>         0.0000
     43 H10         6.6887   -1.5511    0.3548 H         1 <0>         0.0000
     44 H11         6.5934   -2.2228   -1.2761 H         1 <0>         0.0000
     45 H12         6.1527   -0.5364   -0.9940 H         1 <0>         0.0000
     46 H13         2.9179   -5.5936    0.7516 H         1 <0>         0.0000
     47 H14         2.9363   -4.7319    2.2815 H         1 <0>         0.0000
     48 H15         1.4493   -4.7746    1.3089 H         1 <0>         0.0000
     49 H16         1.2224    1.6387    0.4254 H         1 <0>         0.0000
     50 H17         1.9549    2.6943   -0.8218 H         1 <0>         0.0000
     51 H18         2.9090    1.4126   -0.0911 H         1 <0>         0.0000
     52 H19        -0.6918    1.0701   -1.0978 H         1 <0>         0.0000
     53 H20        -0.3430    0.4015   -2.7229 H         1 <0>         0.0000
     54 H21        -0.0180    2.1158   -2.3787 H         1 <0>         0.0000
     55 H22         6.3434   -3.8569    0.3005 H         1 <0>         0.0000
     56 H23         5.1421   -5.1155    0.3498 H         1 <0>         0.0000
@<TRIPOS>BOND
     1    1    2 ar
     2    1   10 ar
     3    1   34 1
     4    2   14 ar
     5    2   35 1
     6    3    5 ar
     7    3   16 ar
     8    3   36 1
     9    4    6 ar
    10    4   16 ar
    11    4   37 1
    12    5   17 ar
    13    5   38 1
    14    6   17 ar
    15    6   39 1
    16    7   11 ar
    17    7   15 ar
    18    7   40 1
    19    8   12 ar
    20    8   15 ar
    21    8   41 1
    22    9   10 ar
    23    9   18 ar
    24    9   42 1
    25   10   24 1
    26   11   13 ar
    27   11   20 1
    28   12   13 ar
    29   12   21 1
    30   13   24 1
    31   14   18 ar
    32   14   26 1
    33   15   31 1
    34   16   32 1
    35   17   33 1
    36   18   33 1
    37   19   25 1
    38   19   27 1
    39   19   28 2
    40   20   43 1
    41   20   44 1
    42   20   45 1
    43   21   46 1
    44   21   47 1
    45   21   48 1
    46   22   25 1
    47   22   49 1
    48   22   50 1
    49   22   51 1
    50   23   25 1
    51   23   52 1
    52   23   53 1
    53   23   54 1
    54   24   55 1
    55   24   56 1
    56   25   31 1
    57   29   33 2
    58   30   33 2
