@<TRIPOS>MOLECULE
*****
   58    60     0     0     0
SMALL
NO_CHARGES

@<TRIPOS>ATOM
      1 C1         -4.0482   -9.7097   12.8958 C.ar      1 <0>         0.0000
      2 C2         -3.0634   -8.9969   13.5884 C.ar      1 <0>         0.0000
      3 C3         -4.3946   -9.3212   11.5976 C.ar      1 <0>         0.0000
      4 C4          3.6607   -4.1009    7.2728 C.ar      1 <0>         0.0000
      5 C5         -2.4298   -7.9076   12.9834 C.ar      1 <0>         0.0000
      6 C6         -3.7570   -8.2301   10.9984 C.ar      1 <0>         0.0000
      7 C7          3.7929   -4.8509    6.1065 C.ar      1 <0>         0.0000
      8 C8          2.3968   -3.7504    7.7645 C.ar      1 <0>         0.0000
      9 C9          1.3869   -4.9177    5.8626 C.ar      1 <0>         0.0000
     10 C10         1.6672   -7.8645    1.4910 C.ar      1 <0>         0.0000
     11 C11        -2.7661   -7.5089   11.6807 C.ar      1 <0>         0.0000
     12 C12         2.6575   -5.2712    5.3804 C.ar      1 <0>         0.0000
     13 C13         1.2870   -4.1763    7.0375 C.ar      1 <0>         0.0000
     14 C14         0.3010   -7.6451    1.5365 C.ar      1 <0>         0.0000
     15 C15        -0.2034   -6.8006    2.5623 C.ar      1 <0>         0.0000
     16 C16         1.9559   -6.5570    3.3188 C.ar      1 <0>         0.0000
     17 C17        -3.3534   -4.9979    3.3061 C.3       1 <0>         0.0000
     18 C18        -2.0406   -6.3659   11.0089 C.3       1 <0>         0.0000
     19 C19        -0.7215   -6.8241   10.3614 C.3       1 <0>         0.0000
     20 C20        -0.0022   -5.7079    9.6023 C.3       1 <0>         0.0000
     21 C21        -2.3075   -6.5681    5.0048 C.3       1 <0>         0.0000
     22 C22        -2.0725   -5.6901    3.7741 C.3       1 <0>         0.0000
     23 N1          2.5252   -7.3271    2.3725 N.ar      1 <0>         0.0000
     24 N2          0.6578   -6.2770    3.4560 N.ar      1 <0>         0.0000
     25 N3          2.8604   -6.0243    4.2225 N.pl3     1 <0>         0.0000
     26 N4         -1.5112   -6.4731    2.6672 N.pl3     1 <0>         0.0000
     27 N5         -0.8202   -5.2789    8.4528 N.pl3     1 <0>         0.0000
     28 O1         -0.2871   -2.8159    8.6750 O.2       1 <0>         0.0000
     29 O2         -1.2816   -3.7724    6.5099 O.2       1 <0>         0.0000
     30 O3         -3.2372   -7.5964    4.6416 O.3       1 <0>         0.0000
     31 S1         -0.3720   -3.8612    7.6566 S.o2      1 <0>         0.0000
     32 Br1        -0.8654   -8.4457    0.2472 Br        1 <0>         0.0000
     33 H1         -4.5448  -10.5549   13.3654 H         1 <0>         0.0000
     34 H2         -2.7930   -9.2868   14.6008 H         1 <0>         0.0000
     35 H3         -5.1651   -9.8635   11.0550 H         1 <0>         0.0000
     36 H4          4.5532   -3.7828    7.8043 H         1 <0>         0.0000
     37 H5         -1.6690   -7.3547   13.5316 H         1 <0>         0.0000
     38 H6         -4.0385   -7.9271    9.9916 H         1 <0>         0.0000
     39 H7          4.7854   -5.1112    5.7448 H         1 <0>         0.0000
     40 H8          2.2742   -3.1575    8.6643 H         1 <0>         0.0000
     41 H9          0.5071   -5.2037    5.3094 H         1 <0>         0.0000
     42 H10         2.0951   -8.4972    0.7163 H         1 <0>         0.0000
     43 H11        -4.1203   -5.7286    3.0322 H         1 <0>         0.0000
     44 H12        -3.1468   -4.3582    2.4435 H         1 <0>         0.0000
     45 H13        -3.7495   -4.3741    4.1120 H         1 <0>         0.0000
     46 H14        -1.8193   -5.5787   11.7394 H         1 <0>         0.0000
     47 H15        -2.6742   -5.9116   10.2417 H         1 <0>         0.0000
     48 H16        -0.9171   -7.6663    9.6843 H         1 <0>         0.0000
     49 H17        -0.0439   -7.2082   11.1327 H         1 <0>         0.0000
     50 H18         0.9943   -6.0439    9.2830 H         1 <0>         0.0000
     51 H19         0.1261   -4.8346   10.2465 H         1 <0>         0.0000
     52 H20        -1.3493   -7.0067    5.3199 H         1 <0>         0.0000
     53 H21        -2.6968   -5.9376    5.8145 H         1 <0>         0.0000
     54 H22        -1.3381   -4.9328    4.0497 H         1 <0>         0.0000
     55 H23         3.8148   -6.2844    4.0049 H         1 <0>         0.0000
     56 H24        -2.1624   -7.0198    2.1166 H         1 <0>         0.0000
     57 H25        -0.9587   -6.0162    7.7618 H         1 <0>         0.0000
     58 H26        -3.4072   -8.1497    5.4179 H         1 <0>         0.0000
@<TRIPOS>BOND
     1    1    3 ar
     2    1    2 ar
     3    1   33 1
     4    2    5 ar
     5    2   34 1
     6    3    6 ar
     7    3   35 1
     8    4    7 ar
     9    4    8 ar
    10    4   36 1
    11    5   11 ar
    12    5   37 1
    13    6   11 ar
    14    6   38 1
    15    7   12 ar
    16    7   39 1
    17    8   13 ar
    18    8   40 1
    19    9   12 ar
    20    9   13 ar
    21    9   41 1
    22   10   14 ar
    23   10   23 ar
    24   10   42 1
    25   11   18 1
    26   12   25 1
    27   13   31 1
    28   14   15 ar
    29   14   32 1
    30   15   24 ar
    31   15   26 1
    32   16   23 ar
    33   16   24 ar
    34   16   25 1
    35   17   22 1
    36   17   43 1
    37   17   44 1
    38   17   45 1
    39   18   19 1
    40   18   46 1
    41   18   47 1
    42   19   20 1
    43   19   48 1
    44   19   49 1
    45   20   27 1
    46   20   50 1
    47   20   51 1
    48   21   22 1
    49   21   30 1
    50   21   52 1
    51   21   53 1
    52   22   26 1
    53   22   54 1
    54   25   55 1
    55   26   56 1
    56   27   31 1
    57   27   57 1
    58   28   31 2
    59   29   31 2
    60   30   58 1
