@<TRIPOS>MOLECULE
*****
   74    77     0     0     0
SMALL
NO_CHARGES

@<TRIPOS>ATOM
      1 C1          3.3560   -2.7752   -3.6372 C.ar      1 <0>         0.0000
      2 C2          3.5796   -2.8758   -2.2588 C.ar      1 <0>         0.0000
      3 C3          2.5992   -1.7083   -4.1325 C.ar      1 <0>         0.0000
      4 C4          3.0447   -1.9266   -1.3878 C.ar      1 <0>         0.0000
      5 C5          2.0728   -0.7537   -3.2584 C.ar      1 <0>         0.0000
      6 C6          0.7605   -2.0676    1.8047 C.ar      1 <0>         0.0000
      7 C7         -0.0426   -2.3475   -0.4431 C.ar      1 <0>         0.0000
      8 C8         -0.5873    0.9365    1.7589 C.ar      1 <0>         0.0000
      9 C9          0.3635   -3.3629    2.1161 C.ar      1 <0>         0.0000
     10 C10        -0.4561   -3.6488   -0.1456 C.ar      1 <0>         0.0000
     11 C11        -0.9489    1.9187    2.6801 C.ar      1 <0>         0.0000
     12 C12         1.2836    2.8462    2.5201 C.ar      1 <0>         0.0000
     13 C13         0.5840   -1.5363    0.5122 C.ar      1 <0>         0.0000
     14 C14         2.2740   -0.8522   -1.8700 C.ar      1 <0>         0.0000
     15 C15         0.6937    0.8974    1.1870 C.ar      1 <0>         0.0000
     16 C16         1.6459    1.8662    1.5932 C.ar      1 <0>         0.0000
     17 C17        -0.2449   -4.1677    1.1394 C.ar      1 <0>         0.0000
     18 C18        -0.0066    2.8820    3.0589 C.ar      1 <0>         0.0000
     19 C19         1.0382   -0.1566    0.1955 C.2       1 <0>         0.0000
     20 C20         1.7195    0.1642   -0.9394 C.2       1 <0>         0.0000
     21 C21         3.0558    1.8171    1.0500 C.3       1 <0>         0.0000
     22 C22         1.9926    1.6224   -1.2626 C.3       1 <0>         0.0000
     23 C23         3.1548    2.2114   -0.4379 C.3       1 <0>         0.0000
     24 C24        -2.1093   -8.6457    0.3024 C.3       1 <0>         0.0000
     25 C25        -1.4706   -7.6302    1.2564 C.3       1 <0>         0.0000
     26 C26        -5.7170  -15.3874   -1.0972 C.3       1 <0>         0.0000
     27 C27        -2.3895   -9.9910    0.9841 C.3       1 <0>         0.0000
     28 C28        -4.9359  -14.6873    0.0223 C.3       1 <0>         0.0000
     29 C29        -1.2043   -6.2955    0.5764 C.3       1 <0>         0.0000
     30 C30        -6.3644  -16.6870   -0.6504 C.3       1 <0>         0.0000
     31 C31        -3.0269  -10.9984    0.0298 C.3       1 <0>         0.0000
     32 C32        -4.3185  -13.3745   -0.4544 C.3       1 <0>         0.0000
     33 O1         -4.5292  -12.1560    1.9460 O.2       1 <0>         0.0000
     34 O2         -0.2877    3.8781    3.9646 O.3       1 <0>         0.0000
     35 O3         -0.6006   -5.4284    1.5382 O.3       1 <0>         0.0000
     36 F1         -7.3200  -16.4345    0.3496 F         1 <0>         0.0000
     37 S1         -3.4492  -12.5436    0.9453 S.o       1 <0>         0.0000
     38 H1          3.7709   -3.5155   -4.3164 H         1 <0>         0.0000
     39 H2          4.1745   -3.6949   -1.8622 H         1 <0>         0.0000
     40 H3          2.4174   -1.6192   -5.2009 H         1 <0>         0.0000
     41 H4          3.2177   -2.0146   -0.3196 H         1 <0>         0.0000
     42 H5          1.4760    0.0629   -3.6572 H         1 <0>         0.0000
     43 H6          1.2242   -1.4544    2.5727 H         1 <0>         0.0000
     44 H7         -0.2093   -1.9585   -1.4427 H         1 <0>         0.0000
     45 H8         -1.3157    0.1832    1.4723 H         1 <0>         0.0000
     46 H9          0.5133   -3.7741    3.1103 H         1 <0>         0.0000
     47 H10        -0.9379   -4.2387   -0.9170 H         1 <0>         0.0000
     48 H11        -1.9529    1.9328    3.1020 H         1 <0>         0.0000
     49 H12         2.0039    3.5914    2.8474 H         1 <0>         0.0000
     50 H13         3.7102    2.4591    1.6478 H         1 <0>         0.0000
     51 H14         3.4295    0.7924    1.1565 H         1 <0>         0.0000
     52 H15         2.2181    1.7407   -2.3258 H         1 <0>         0.0000
     53 H16         1.0918    2.2099   -1.0554 H         1 <0>         0.0000
     54 H17         3.1372    3.3029   -0.5436 H         1 <0>         0.0000
     55 H18         4.1174    1.8642   -0.8313 H         1 <0>         0.0000
     56 H19        -3.0503   -8.2391   -0.0917 H         1 <0>         0.0000
     57 H20        -1.4522   -8.8012   -0.5641 H         1 <0>         0.0000
     58 H21        -2.1242   -7.4637    2.1202 H         1 <0>         0.0000
     59 H22        -0.5238   -8.0222    1.6455 H         1 <0>         0.0000
     60 H23        -5.0509  -15.6208   -1.9391 H         1 <0>         0.0000
     61 H24        -6.4974  -14.7216   -1.4850 H         1 <0>         0.0000
     62 H25        -1.4542  -10.4020    1.3845 H         1 <0>         0.0000
     63 H26        -3.0618   -9.8414    1.8356 H         1 <0>         0.0000
     64 H27        -5.6033  -14.4822    0.8641 H         1 <0>         0.0000
     65 H28        -4.1466  -15.3548    0.3914 H         1 <0>         0.0000
     66 H29        -2.1417   -5.8533    0.2108 H         1 <0>         0.0000
     67 H30        -0.5312   -6.4250   -0.2827 H         1 <0>         0.0000
     68 H31        -5.6299  -17.3798   -0.2246 H         1 <0>         0.0000
     69 H32        -6.8872  -17.1781   -1.4776 H         1 <0>         0.0000
     70 H33        -3.9646  -10.6115   -0.3839 H         1 <0>         0.0000
     71 H34        -2.3523  -11.2708   -0.7902 H         1 <0>         0.0000
     72 H35        -5.0898  -12.6800   -0.8048 H         1 <0>         0.0000
     73 H36        -3.5823  -13.5321   -1.2517 H         1 <0>         0.0000
     74 H37        -1.2071    3.7836    4.2599 H         1 <0>         0.0000
@<TRIPOS>BOND
     1    1    3 ar
     2    1    2 ar
     3    1   38 1
     4    2    4 ar
     5    2   39 1
     6    3    5 ar
     7    3   40 1
     8    4   14 ar
     9    4   41 1
    10    5   14 ar
    11    5   42 1
    12    6    9 ar
    13    6   13 ar
    14    6   43 1
    15    7   10 ar
    16    7   13 ar
    17    7   44 1
    18    8   11 ar
    19    8   15 ar
    20    8   45 1
    21    9   17 ar
    22    9   46 1
    23   10   17 ar
    24   10   47 1
    25   11   18 ar
    26   11   48 1
    27   12   16 ar
    28   12   18 ar
    29   12   49 1
    30   13   19 1
    31   14   20 1
    32   15   16 ar
    33   15   19 1
    34   16   21 1
    35   17   35 1
    36   18   34 1
    37   19   20 2
    38   20   22 1
    39   21   23 1
    40   21   50 1
    41   21   51 1
    42   22   23 1
    43   22   52 1
    44   22   53 1
    45   23   54 1
    46   23   55 1
    47   24   25 1
    48   24   27 1
    49   24   56 1
    50   24   57 1
    51   25   29 1
    52   25   58 1
    53   25   59 1
    54   26   28 1
    55   26   30 1
    56   26   60 1
    57   26   61 1
    58   27   31 1
    59   27   62 1
    60   27   63 1
    61   28   32 1
    62   28   64 1
    63   28   65 1
    64   29   35 1
    65   29   66 1
    66   29   67 1
    67   30   36 1
    68   30   68 1
    69   30   69 1
    70   31   37 1
    71   31   70 1
    72   31   71 1
    73   32   37 1
    74   32   72 1
    75   32   73 1
    76   33   37 2
    77   34   74 1
