@<TRIPOS>MOLECULE
*****
   50    51     0     0     0
SMALL
NO_CHARGES

@<TRIPOS>ATOM
      1 C1          1.1132   -1.5006    1.4148 C.2       1 <0>         0.0000
      2 C2          1.2059   -0.8681   -1.6242 C.2       1 <0>         0.0000
      3 C3         -1.2328   -1.6673    0.3995 C.3       1 <0>         0.0000
      4 C4         -2.1167   -1.7868    1.6404 C.3       1 <0>         0.0000
      5 C5         -1.4087    0.2680    2.5273 C.3       1 <0>         0.0000
      6 C6         -0.3801    0.5096    1.4318 C.3       1 <0>         0.0000
      7 C7         -0.0004   -0.7730    0.6337 C.3       1 <0>         0.0000
      8 C8          3.9129   -2.6047    1.7196 C.3       1 <0>         0.0000
      9 C9          4.4733   -0.1473    1.7174 C.3       1 <0>         0.0000
     10 C10         3.1373   -1.1151    3.6287 C.3       1 <0>         0.0000
     11 C11         3.4305   -2.7070   -2.5106 C.3       1 <0>         0.0000
     12 C12         1.9379   -4.4263   -1.4216 C.3       1 <0>         0.0000
     13 C13         1.1387   -3.2171   -3.4859 C.3       1 <0>         0.0000
     14 C14         3.4544   -1.2065    2.1350 C.3       1 <0>         0.0000
     15 C15         1.9880   -3.1226   -2.2174 C.3       1 <0>         0.0000
     16 N1          0.4996   -0.2073   -0.6243 N.am      1 <0>         0.0000
     17 O1          0.9088   -2.5217    2.0424 O.2       1 <0>         0.0000
     18 O2          1.5956   -0.3127   -2.6311 O.2       1 <0>         0.0000
     19 O3         -0.7699    1.6194   -2.0314 O.2       1 <0>         0.0000
     20 O4          1.2064    2.2963   -0.6022 O.2       1 <0>         0.0000
     21 O5         -2.5184   -0.4959    2.1085 O.3       1 <0>         0.0000
     22 O6         -0.9271    1.4147    0.4445 O.3       1 <0>         0.0000
     23 O7          2.2513   -0.8093    1.3587 O.3       1 <0>         0.0000
     24 O8          1.3582   -2.1583   -1.2779 O.3       1 <0>         0.0000
     25 S1          0.0637    1.4417   -0.8642 S.o2      1 <0>         0.0000
     26 H1         -0.9028   -2.6548    0.0714 H         1 <0>         0.0000
     27 H2         -1.8185   -1.2134   -0.4043 H         1 <0>         0.0000
     28 H3         -3.0398   -2.3151    1.3928 H         1 <0>         0.0000
     29 H4         -1.6003   -2.3335    2.4388 H         1 <0>         0.0000
     30 H5         -0.8870   -0.2243    3.3643 H         1 <0>         0.0000
     31 H6         -1.7904    1.2303    2.8760 H         1 <0>         0.0000
     32 H7          0.5183    0.9671    1.8584 H         1 <0>         0.0000
     33 H8          3.1950   -3.3697    2.0161 H         1 <0>         0.0000
     34 H9          4.0565   -2.6500    0.6372 H         1 <0>         0.0000
     35 H10         4.8737   -2.8205    2.1976 H         1 <0>         0.0000
     36 H11         4.1136    0.8550    1.9657 H         1 <0>         0.0000
     37 H12         4.6509   -0.1884    0.6392 H         1 <0>         0.0000
     38 H13         5.4213   -0.3178    2.2357 H         1 <0>         0.0000
     39 H14         2.7587   -0.1188    3.8784 H         1 <0>         0.0000
     40 H15         2.4029   -1.8640    3.9289 H         1 <0>         0.0000
     41 H16         4.0543   -1.2801    4.2029 H         1 <0>         0.0000
     42 H17         3.4716   -1.7815   -3.0848 H         1 <0>         0.0000
     43 H18         3.9881   -2.5706   -1.5796 H         1 <0>         0.0000
     44 H19         3.9200   -3.5001   -3.0848 H         1 <0>         0.0000
     45 H20         0.9049   -4.6917   -1.1795 H         1 <0>         0.0000
     46 H21         2.4962   -4.3333   -0.4866 H         1 <0>         0.0000
     47 H22         2.3757   -5.2369   -2.0112 H         1 <0>         0.0000
     48 H23         0.1007   -3.4549   -3.2331 H         1 <0>         0.0000
     49 H24         1.1620   -2.2856   -4.0526 H         1 <0>         0.0000
     50 H25         1.5272   -4.0207   -4.1195 H         1 <0>         0.0000
@<TRIPOS>BOND
     1    1    7 1
     2    1   17 2
     3    1   23 1
     4    2   16 am
     5    2   18 2
     6    2   24 1
     7    3    4 1
     8    3    7 1
     9    3   26 1
    10    3   27 1
    11    4   21 1
    12    4   28 1
    13    4   29 1
    14    5    6 1
    15    5   21 1
    16    5   30 1
    17    5   31 1
    18    6    7 1
    19    6   22 1
    20    6   32 1
    21    7   16 1
    22    8   14 1
    23    8   33 1
    24    8   34 1
    25    8   35 1
    26    9   14 1
    27    9   36 1
    28    9   37 1
    29    9   38 1
    30   10   14 1
    31   10   39 1
    32   10   40 1
    33   10   41 1
    34   11   15 1
    35   11   42 1
    36   11   43 1
    37   11   44 1
    38   12   15 1
    39   12   45 1
    40   12   46 1
    41   12   47 1
    42   13   15 1
    43   13   48 1
    44   13   49 1
    45   13   50 1
    46   14   23 1
    47   15   24 1
    48   16   25 1
    49   19   25 2
    50   20   25 2
    51   22   25 1
