@<TRIPOS>MOLECULE
*****
   63    67     0     0     0
SMALL
NO_CHARGES

@<TRIPOS>ATOM
      1 C1         -0.8091    6.0420    1.3595 C.ar      1 <0>         0.0000
      2 C2          0.2424    6.4099   -0.7827 C.ar      1 <0>         0.0000
      3 C3         -1.6845    7.1019    1.1207 C.ar      1 <0>         0.0000
      4 C4         -0.6238    7.4754   -1.0237 C.ar      1 <0>         0.0000
      5 C5          2.7553    5.4595    3.9883 C.ar      1 <0>         0.0000
      6 C6          1.2617    3.3455    2.9219 C.ar      1 <0>         0.0000
      7 C7          1.6529    3.3055    4.2878 C.ar      1 <0>         0.0000
      8 C8          0.1643    5.6889    0.4162 C.ar      1 <0>         0.0000
      9 C9         -1.5885    7.8239   -0.0713 C.ar      1 <0>         0.0000
     10 C10         2.3677    5.5131    2.6529 C.ar      1 <0>         0.0000
     11 C11         1.5906    4.4510    2.1184 C.ar      1 <0>         0.0000
     12 C12         2.3987    4.3864    4.8056 C.ar      1 <0>         0.0000
     13 C13         1.0242    1.2141    1.5967 C.2       1 <0>         0.0000
     14 C14         0.5095    2.2021    2.3415 C.2       1 <0>         0.0000
     15 C15         1.3689    2.1551    5.1767 C.2       1 <0>         0.0000
     16 C16        -0.0342    0.2380    1.1323 C.3       1 <0>         0.0000
     17 C17        -0.9975    2.0686    2.4700 C.3       1 <0>         0.0000
     18 C18         2.1312    2.1788    6.4923 C.3       1 <0>         0.0000
     19 C19        -1.2597    0.6177    2.0041 C.3       1 <0>         0.0000
     20 C20         1.3094    3.7901    9.0211 C.3       1 <0>         0.0000
     21 C21         2.7606    3.7302    8.4628 C.3       1 <0>         0.0000
     22 C22         0.8051    4.1080    7.5846 C.3       1 <0>         0.0000
     23 C23         2.1719    3.5933    7.0460 C.3       1 <0>         0.0000
     24 C24         4.3367    6.8192    1.7631 C.3       1 <0>         0.0000
     25 C25         2.1724    8.0194    2.3540 C.3       1 <0>         0.0000
     26 C26         1.0742    4.5029    0.6857 C.3       1 <0>         0.0000
     27 C27         2.8016    6.7173    1.8264 C.3       1 <0>         0.0000
     28 C28        -2.5016    8.9841   -0.3534 C.3       1 <0>         0.0000
     29 O1          0.5931    1.2425    4.9118 O.2       1 <0>         0.0000
     30 O2          2.8258    4.4575    6.0995 O.3       1 <0>         0.0000
     31 O3          2.1364    4.5036   -0.2840 O.3       1 <0>         0.0000
     32 F1         -3.4155    9.1787    0.6276 F         1 <0>         0.0000
     33 F2         -1.8124   10.1506   -0.4890 F         1 <0>         0.0000
     34 F3         -3.1928    8.8165   -1.5131 F         1 <0>         0.0000
     35 H1         -0.8749    5.4959    2.2961 H         1 <0>         0.0000
     36 H2          0.9941    6.1387   -1.5153 H         1 <0>         0.0000
     37 H3         -2.4313    7.3697    1.8609 H         1 <0>         0.0000
     38 H4         -0.5506    8.0352   -1.9520 H         1 <0>         0.0000
     39 H5          3.3366    6.2603    4.4345 H         1 <0>         0.0000
     40 H6          2.0790    1.1147    1.3490 H         1 <0>         0.0000
     41 H7         -0.2363    0.3679    0.0587 H         1 <0>         0.0000
     42 H8          0.2669   -0.8067    1.2697 H         1 <0>         0.0000
     43 H9         -1.3409    2.2507    3.4917 H         1 <0>         0.0000
     44 H10        -1.4925    2.8079    1.8217 H         1 <0>         0.0000
     45 H11         1.6527    1.4873    7.1891 H         1 <0>         0.0000
     46 H12         3.1581    1.8332    6.3131 H         1 <0>         0.0000
     47 H13        -2.2098    0.5068    1.4736 H         1 <0>         0.0000
     48 H14        -1.2861   -0.0302    2.8843 H         1 <0>         0.0000
     49 H15         1.1091    4.5389    9.7901 H         1 <0>         0.0000
     50 H16         0.9596    2.8181    9.3784 H         1 <0>         0.0000
     51 H17         3.2776    4.6880    8.5638 H         1 <0>         0.0000
     52 H18         3.4175    2.9254    8.8046 H         1 <0>         0.0000
     53 H19        -0.0967    3.6001    7.2320 H         1 <0>         0.0000
     54 H20         0.7082    5.1829    7.4119 H         1 <0>         0.0000
     55 H21         4.7760    7.0035    2.7491 H         1 <0>         0.0000
     56 H22         4.6300    7.6460    1.1073 H         1 <0>         0.0000
     57 H23         4.7728    5.8978    1.3647 H         1 <0>         0.0000
     58 H24         2.5042    8.2446    3.3733 H         1 <0>         0.0000
     59 H25         1.0807    7.9551    2.3579 H         1 <0>         0.0000
     60 H26         2.4595    8.8608    1.7144 H         1 <0>         0.0000
     61 H27         0.4685    3.6076    0.5211 H         1 <0>         0.0000
     62 H28         2.4607    6.5767    0.8040 H         1 <0>         0.0000
     63 H29         2.6436    3.6891   -0.1403 H         1 <0>         0.0000
@<TRIPOS>BOND
     1    1    3 ar
     2    1    8 ar
     3    1   35 1
     4    2    4 ar
     5    2    8 ar
     6    2   36 1
     7    3    9 ar
     8    3   37 1
     9    4    9 ar
    10    4   38 1
    11    5   10 ar
    12    5   12 ar
    13    5   39 1
    14    6    7 ar
    15    6   11 ar
    16    6   14 1
    17    7   12 ar
    18    7   15 1
    19    8   26 1
    20    9   28 1
    21   10   11 ar
    22   10   27 1
    23   11   26 1
    24   12   30 1
    25   13   14 2
    26   13   16 1
    27   13   40 1
    28   14   17 1
    29   15   18 1
    30   15   29 2
    31   16   19 1
    32   16   41 1
    33   16   42 1
    34   17   19 1
    35   17   43 1
    36   17   44 1
    37   18   23 1
    38   18   45 1
    39   18   46 1
    40   19   47 1
    41   19   48 1
    42   20   22 1
    43   20   21 1
    44   20   49 1
    45   20   50 1
    46   21   23 1
    47   21   51 1
    48   21   52 1
    49   22   23 1
    50   22   53 1
    51   22   54 1
    52   23   30 1
    53   24   27 1
    54   24   55 1
    55   24   56 1
    56   24   57 1
    57   25   27 1
    58   25   58 1
    59   25   59 1
    60   25   60 1
    61   26   31 1
    62   26   61 1
    63   27   62 1
    64   28   32 1
    65   28   33 1
    66   28   34 1
    67   31   63 1
