@<TRIPOS>MOLECULE
*****
   65    69     0     0     0
SMALL
NO_CHARGES

@<TRIPOS>ATOM
      1 C1         -1.8121   -2.3529   -4.4244 C.ar      1 <0>         0.0000
      2 C2          0.6153   -2.7661   -4.3739 C.ar      1 <0>         0.0000
      3 C3         -0.8648   -3.9495   -5.9065 C.ar      1 <0>         0.0000
      4 C4         -0.5210   -2.0943   -3.8973 C.ar      1 <0>         0.0000
      5 C5         -2.0002   -3.2861   -5.4419 C.ar      1 <0>         0.0000
      6 C6         -0.7853   -4.9550   -6.9163 C.2       1 <0>         0.0000
      7 C7          0.4259   -3.7065   -5.3880 C.ar      1 <0>         0.0000
      8 C8          0.5410   -5.3174   -7.0067 C.2       1 <0>         0.0000
      9 C9         -4.4098   -1.9734  -10.1704 C.2       1 <0>         0.0000
     10 C10        -2.0477   -5.3747   -7.6161 C.3       1 <0>         0.0000
     11 C11        -3.6252   -2.6477   -7.2565 C.3       1 <0>         0.0000
     12 C12        -4.9195   -4.5147   -8.4086 C.3       1 <0>         0.0000
     13 C13         1.6337    0.4060   -1.5802 C.3       1 <0>         0.0000
     14 C14         0.7750   -0.2832   -0.5202 C.3       1 <0>         0.0000
     15 C15        -3.3025   -3.6411   -6.1243 C.3       1 <0>         0.0000
     16 C16        -0.3938   -1.0854   -2.7838 C.3       1 <0>         0.0000
     17 C17        -3.2692   -5.0923   -6.6819 C.3       1 <0>         0.0000
     18 C18        -4.9243   -3.0442   -7.9706 C.3       1 <0>         0.0000
     19 C19         1.2215   -6.3148   -7.8869 C.3       1 <0>         0.0000
     20 C20        -4.1838   -1.6195  -13.3983 C.3       1 <0>         0.0000
     21 C21        -5.9873    1.0470  -10.2140 C.3       1 <0>         0.0000
     22 C22        -4.7786   -6.7873   -7.6028 C.3       1 <0>         0.0000
     23 C23        -3.8689   -0.7296  -12.1917 C.3       1 <0>         0.0000
     24 C24        -6.0325   -0.2581  -11.0214 C.3       1 <0>         0.0000
     25 N1          1.2768   -4.5527   -6.0847 N.pl3     1 <0>         0.0000
     26 N2         -4.5824   -5.3812   -7.2764 N.3       1 <0>         0.0000
     27 N3         -5.2704   -2.1585   -9.0946 N.am      1 <0>         0.0000
     28 N4         -4.7581   -0.9699  -11.0530 N.am      1 <0>         0.0000
     29 O1         -3.4060   -2.6748  -10.3486 O.2       1 <0>         0.0000
     30 S1          0.7609    0.3300   -3.1970 S.3       1 <0>         0.0000
     31 S2          0.1968   -1.8643   -1.2227 S.3       1 <0>         0.0000
     32 H1         -2.6643   -1.8124   -4.0157 H         1 <0>         0.0000
     33 H2          1.5923   -2.5421   -3.9552 H         1 <0>         0.0000
     34 H3         -2.1626   -4.8244   -8.5566 H         1 <0>         0.0000
     35 H4         -2.0301   -6.4392   -7.8727 H         1 <0>         0.0000
     36 H5         -3.7242   -1.6368   -6.8428 H         1 <0>         0.0000
     37 H6         -2.8052   -2.6213   -7.9770 H         1 <0>         0.0000
     38 H7         -5.9276   -4.7761   -8.7486 H         1 <0>         0.0000
     39 H8         -4.2432   -4.6432   -9.2641 H         1 <0>         0.0000
     40 H9          1.7941    1.4593   -1.3302 H         1 <0>         0.0000
     41 H10         2.6026   -0.0914   -1.6683 H         1 <0>         0.0000
     42 H11         1.3546   -0.5052    0.3813 H         1 <0>         0.0000
     43 H12        -0.0799    0.3411   -0.2435 H         1 <0>         0.0000
     44 H13        -4.1214   -3.6112   -5.3950 H         1 <0>         0.0000
     45 H14        -1.3706   -0.6412   -2.5864 H         1 <0>         0.0000
     46 H15        -3.1685   -5.7603   -5.8177 H         1 <0>         0.0000
     47 H16        -5.7482   -2.9371   -7.2554 H         1 <0>         0.0000
     48 H17         1.9229   -5.8340   -8.5806 H         1 <0>         0.0000
     49 H18         1.7848   -7.0556   -7.3056 H         1 <0>         0.0000
     50 H19         0.4804   -6.8506   -8.4845 H         1 <0>         0.0000
     51 H20        -4.0536   -2.6706  -13.1286 H         1 <0>         0.0000
     52 H21        -5.2125   -1.4732  -13.7466 H         1 <0>         0.0000
     53 H22        -3.5100   -1.3882  -14.2310 H         1 <0>         0.0000
     54 H23        -5.7320    0.8639   -9.1646 H         1 <0>         0.0000
     55 H24        -5.2306    1.7257  -10.6200 H         1 <0>         0.0000
     56 H25        -6.9570    1.5560  -10.2452 H         1 <0>         0.0000
     57 H26        -4.5142   -7.4055   -6.7383 H         1 <0>         0.0000
     58 H27        -4.1868   -7.1364   -8.4680 H         1 <0>         0.0000
     59 H28        -5.8353   -6.9636   -7.8324 H         1 <0>         0.0000
     60 H29        -3.9547    0.3292  -12.4612 H         1 <0>         0.0000
     61 H30        -2.8444   -0.9044  -11.8606 H         1 <0>         0.0000
     62 H31        -6.3132   -0.0325  -12.0555 H         1 <0>         0.0000
     63 H32        -6.8138   -0.9237  -10.6413 H         1 <0>         0.0000
     64 H33         2.2708   -4.6436   -5.9311 H         1 <0>         0.0000
     65 H34        -5.8229   -1.3568   -8.8255 H         1 <0>         0.0000
@<TRIPOS>BOND
     1    1    4 ar
     2    1    5 ar
     3    1   32 1
     4    2    4 ar
     5    2    7 ar
     6    2   33 1
     7    3    5 ar
     8    3    6 1
     9    3    7 ar
    10    4   16 1
    11    5   15 1
    12    6    8 2
    13    6   10 1
    14    7   25 1
    15    8   19 1
    16    8   25 1
    17    9   27 am
    18    9   28 am
    19    9   29 2
    20   10   17 1
    21   10   34 1
    22   10   35 1
    23   11   15 1
    24   11   18 1
    25   11   36 1
    26   11   37 1
    27   12   18 1
    28   12   26 1
    29   12   38 1
    30   12   39 1
    31   13   14 1
    32   13   30 1
    33   13   40 1
    34   13   41 1
    35   14   31 1
    36   14   42 1
    37   14   43 1
    38   15   17 1
    39   15   44 1
    40   16   31 1
    41   16   30 1
    42   16   45 1
    43   17   26 1
    44   17   46 1
    45   18   27 1
    46   18   47 1
    47   19   48 1
    48   19   49 1
    49   19   50 1
    50   20   23 1
    51   20   51 1
    52   20   52 1
    53   20   53 1
    54   21   24 1
    55   21   54 1
    56   21   55 1
    57   21   56 1
    58   22   26 1
    59   22   57 1
    60   22   58 1
    61   22   59 1
    62   23   28 1
    63   23   60 1
    64   23   61 1
    65   24   28 1
    66   24   62 1
    67   24   63 1
    68   25   64 1
    69   27   65 1
