@<TRIPOS>MOLECULE
*****
   66    70     0     0     0
SMALL
NO_CHARGES

@<TRIPOS>ATOM
      1 C1         -3.8953    3.2945    4.0529 C.ar      1 <0>         0.0000
      2 C2         -3.9698    1.5015    5.6619 C.ar      1 <0>         0.0000
      3 C3         -0.5783    0.7798    0.2881 C.ar      1 <0>         0.0000
      4 C4         -4.9933   -0.4134   -0.9413 C.ar      1 <0>         0.0000
      5 C5         -6.5702   -1.8212    0.2279 C.ar      1 <0>         0.0000
      6 C6         -1.5695   -0.1889    0.4085 C.ar      1 <0>         0.0000
      7 C7         -4.1098    4.2292    5.0684 C.ar      1 <0>         0.0000
      8 C8         -4.1907    2.4206    6.6807 C.ar      1 <0>         0.0000
      9 C9         -6.0158    0.0752   -1.7564 C.ar      1 <0>         0.0000
     10 C10        -7.6074   -1.3470   -0.5820 C.ar      1 <0>         0.0000
     11 C11        -1.4201    2.0296    2.1873 C.ar      1 <0>         0.0000
     12 C12        -2.4504    1.0819    2.3178 C.ar      1 <0>         0.0000
     13 C13        -3.8311    1.9175    4.3211 C.ar      1 <0>         0.0000
     14 C14        -3.5574    0.9669    3.2260 C.2       1 <0>         0.0000
     15 C15        -5.2570   -1.3659    0.0557 C.ar      1 <0>         0.0000
     16 C16        -0.4871    1.8911    1.1656 C.ar      1 <0>         0.0000
     17 C17        -2.5103   -0.0333    1.4394 C.ar      1 <0>         0.0000
     18 C18        -4.2628    3.7941    6.3934 C.ar      1 <0>         0.0000
     19 C19        -7.3077   -0.4062   -1.5598 C.ar      1 <0>         0.0000
     20 C20        -4.2424   -0.1956    2.8747 C.2       1 <0>         0.0000
     21 C21        -5.4675   -0.7815    3.4614 C.2       1 <0>         0.0000
     22 C22        -3.9842    5.9371    1.4100 C.3       1 <0>         0.0000
     23 C23        -3.7682    7.2695    0.7238 C.3       1 <0>         0.0000
     24 C24        -2.5934    6.5230    1.3182 C.3       1 <0>         0.0000
     25 C25        -4.7981    6.7000    8.5697 C.3       1 <0>         0.0000
     26 C26         0.5696    2.9514    0.9494 C.3       1 <0>         0.0000
     27 C27        -4.1427   -1.8750    0.9506 C.3       1 <0>         0.0000
     28 C28        -1.5830    5.9088    0.3869 C.3       1 <0>         0.0000
     29 C29        -4.5566    6.0285    7.2291 C.3       1 <0>         0.0000
     30 C30         0.0298    4.1809    0.2146 C.3       1 <0>         0.0000
     31 N1         -3.5845   -0.8214    1.8080 N.pl3     1 <0>         0.0000
     32 O1         -5.8003   -1.9461    3.3229 O.2       1 <0>         0.0000
     33 O2         -6.2595    0.0536    4.1810 O.3       1 <0>         0.0000
     34 O3         -4.4773    4.6164    7.4612 O.3       1 <0>         0.0000
     35 O4         -0.9310    4.8258    1.0400 O.3       1 <0>         0.0000
     36 F1         -8.3083    0.0643   -2.3512 F         1 <0>         0.0000
     37 H1         -3.7785    3.6430    3.0317 H         1 <0>         0.0000
     38 H2         -3.8954    0.4451    5.9046 H         1 <0>         0.0000
     39 H3          0.1588    0.6769   -0.5056 H         1 <0>         0.0000
     40 H4         -3.9826   -0.0392   -1.0789 H         1 <0>         0.0000
     41 H5         -6.7893   -2.5341    1.0167 H         1 <0>         0.0000
     42 H6         -1.5968   -1.0328   -0.2743 H         1 <0>         0.0000
     43 H7         -4.1525    5.2821    4.8145 H         1 <0>         0.0000
     44 H8         -4.2989    2.0980    7.7120 H         1 <0>         0.0000
     45 H9         -5.8267    0.8113   -2.5319 H         1 <0>         0.0000
     46 H10        -8.6301   -1.6889   -0.4558 H         1 <0>         0.0000
     47 H11        -1.3656    2.8789    2.8604 H         1 <0>         0.0000
     48 H12        -4.4828    5.9384    2.3746 H         1 <0>         0.0000
     49 H13        -4.2084    5.0737    0.7895 H         1 <0>         0.0000
     50 H14        -3.8549    7.3025   -0.3591 H         1 <0>         0.0000
     51 H15        -4.1104    8.1693    1.2263 H         1 <0>         0.0000
     52 H16        -2.1713    6.9264    2.2357 H         1 <0>         0.0000
     53 H17        -5.7316    6.3458    9.0161 H         1 <0>         0.0000
     54 H18        -3.9791    6.4851    9.2621 H         1 <0>         0.0000
     55 H19        -4.8657    7.7845    8.4365 H         1 <0>         0.0000
     56 H20         0.9823    3.2828    1.9086 H         1 <0>         0.0000
     57 H21         1.4022    2.5460    0.3637 H         1 <0>         0.0000
     58 H22        -4.5026   -2.6818    1.5846 H         1 <0>         0.0000
     59 H23        -3.3139   -2.2613    0.3535 H         1 <0>         0.0000
     60 H24        -0.8392    6.6627    0.0799 H         1 <0>         0.0000
     61 H25        -2.0841    5.5496   -0.5271 H         1 <0>         0.0000
     62 H26        -3.6198    6.3806    6.7771 H         1 <0>         0.0000
     63 H27        -5.3770    6.2412    6.5308 H         1 <0>         0.0000
     64 H28         0.8543    4.8748   -0.0174 H         1 <0>         0.0000
     65 H29        -0.4336    3.8769   -0.7378 H         1 <0>         0.0000
     66 H30        -5.8716    0.9487    4.2216 H         1 <0>         0.0000
@<TRIPOS>BOND
     1    1    7 ar
     2    1   13 ar
     3    1   37 1
     4    2    8 ar
     5    2   13 ar
     6    2   38 1
     7    3    6 ar
     8    3   16 ar
     9    3   39 1
    10    4    9 ar
    11    4   15 ar
    12    4   40 1
    13    5   10 ar
    14    5   15 ar
    15    5   41 1
    16    6   17 ar
    17    6   42 1
    18    7   18 ar
    19    7   43 1
    20    8   18 ar
    21    8   44 1
    22    9   19 ar
    23    9   45 1
    24   10   19 ar
    25   10   46 1
    26   11   12 ar
    27   11   16 ar
    28   11   47 1
    29   12   14 1
    30   12   17 ar
    31   13   14 1
    32   14   20 2
    33   15   27 1
    34   16   26 1
    35   17   31 1
    36   18   34 1
    37   19   36 1
    38   20   21 1
    39   20   31 1
    40   21   32 2
    41   21   33 1
    42   22   23 1
    43   22   24 1
    44   22   48 1
    45   22   49 1
    46   23   24 1
    47   23   50 1
    48   23   51 1
    49   24   28 1
    50   24   52 1
    51   25   29 1
    52   25   53 1
    53   25   54 1
    54   25   55 1
    55   26   30 1
    56   26   56 1
    57   26   57 1
    58   27   31 1
    59   27   58 1
    60   27   59 1
    61   28   35 1
    62   28   60 1
    63   28   61 1
    64   29   34 1
    65   29   62 1
    66   29   63 1
    67   30   35 1
    68   30   64 1
    69   30   65 1
    70   33   66 1
