@<TRIPOS>MOLECULE
*****
   66    68     0     0     0
SMALL
NO_CHARGES

@<TRIPOS>ATOM
      1 C1         -8.7067   -1.6913   -0.4420 C.1       1 <0>         0.0000
      2 C2         -6.6844   -1.3805   -1.7676 C.ar      1 <0>         0.0000
      3 C3         -5.6022   -1.8803   -2.4881 C.ar      1 <0>         0.0000
      4 C4         -6.4070   -4.1421   -2.1141 C.ar      1 <0>         0.0000
      5 C5         -7.6241   -2.2551   -1.2000 C.ar      1 <0>         0.0000
      6 C6         -7.4803   -3.6461   -1.3821 C.ar      1 <0>         0.0000
      7 C7         -5.4659   -3.2593   -2.6463 C.ar      1 <0>         0.0000
      8 C8         -4.0562   -3.3908   -4.7058 C.2       1 <0>         0.0000
      9 C9         -3.3733   -4.6222   -2.8748 C.2       1 <0>         0.0000
     10 C10        -0.9388   -0.4823    1.0923 C.2       1 <0>         0.0000
     11 C11        -1.1768   -3.0167    1.1145 C.3       1 <0>         0.0000
     12 C12        -1.5889   -1.7404   -0.9150 C.3       1 <0>         0.0000
     13 C13        -0.1970   -3.9271    0.3674 C.3       1 <0>         0.0000
     14 C14        -0.6111   -2.6103   -1.6994 C.3       1 <0>         0.0000
     15 C15        -2.8108   -4.1758   -5.1171 C.3       1 <0>         0.0000
     16 C16        -1.7429   -3.2337   -5.6797 C.3       1 <0>         0.0000
     17 C17        -3.2314   -5.2350   -6.1537 C.3       1 <0>         0.0000
     18 C18        -0.0577    0.8739    4.6409 C.3       1 <0>         0.0000
     19 C19        -0.6063   -0.4954    2.5774 C.3       1 <0>         0.0000
     20 C20        -0.3903    0.9105    3.1463 C.3       1 <0>         0.0000
     21 C21         0.0487   -5.1382   -3.3261 C.3       1 <0>         0.0000
     22 C22        -1.3150   -5.7488   -3.7147 C.3       1 <0>         0.0000
     23 C23         0.3489   -4.9500   -1.8370 C.3       1 <0>         0.0000
     24 C24        -8.4847   -4.6099   -0.7791 C.3       1 <0>         0.0000
     25 N1         -9.5600   -1.1919    0.1718 N.1       1 <0>         0.0000
     26 N2         -4.3505   -3.7718   -3.3837 N.am      1 <0>         0.0000
     27 N3         -2.4243   -4.7993   -3.8243 N.pl3     1 <0>         0.0000
     28 N4         -1.2273   -1.7083    0.4903 N.am      1 <0>         0.0000
     29 N5         -0.5480   -3.9914   -1.0994 N.4       1 <0>         0.0000
     30 O1         -4.6788   -2.6024   -5.3762 O.2       1 <0>         0.0000
     31 O2         -0.9662    0.5446    0.4250 O.2       1 <0>         0.0000
     32 F1         -8.1853   -5.8910   -1.0940 F         1 <0>         0.0000
     33 F2         -8.4970   -4.5166    0.5687 F         1 <0>         0.0000
     34 F3         -9.7330   -4.3622   -1.2217 F         1 <0>         0.0000
     35 S1         -3.3938   -5.2784   -1.3259 S.2       1 <0>         0.0000
     36 H1         -6.8070   -0.3107   -1.6355 H         1 <0>         0.0000
     37 H2         -4.8813   -1.2015   -2.9314 H         1 <0>         0.0000
     38 H3         -6.3009   -5.2096   -2.2613 H         1 <0>         0.0000
     39 H4         -2.1747   -3.4756    1.1188 H         1 <0>         0.0000
     40 H5         -0.8469   -2.9441    2.1491 H         1 <0>         0.0000
     41 H6         -1.5541   -0.7202   -1.2994 H         1 <0>         0.0000
     42 H7         -2.6111   -2.1248   -1.0338 H         1 <0>         0.0000
     43 H8          0.8266   -3.5511    0.4405 H         1 <0>         0.0000
     44 H9         -0.2387   -4.9477    0.7546 H         1 <0>         0.0000
     45 H10        -0.9329   -2.7154   -2.7341 H         1 <0>         0.0000
     46 H11         0.3992   -2.1935   -1.6723 H         1 <0>         0.0000
     47 H12        -0.8609   -3.7927   -6.0038 H         1 <0>         0.0000
     48 H13        -1.4416   -2.4783   -4.9483 H         1 <0>         0.0000
     49 H14        -2.1543   -2.7131   -6.5472 H         1 <0>         0.0000
     50 H15        -2.3642   -5.7875   -6.5244 H         1 <0>         0.0000
     51 H16        -3.6998   -4.7312   -7.0024 H         1 <0>         0.0000
     52 H17        -3.9483   -5.9428   -5.7285 H         1 <0>         0.0000
     53 H18         0.8605    0.3075    4.8351 H         1 <0>         0.0000
     54 H19        -0.8644    0.4116    5.2213 H         1 <0>         0.0000
     55 H20         0.0904    1.8855    5.0297 H         1 <0>         0.0000
     56 H21         0.2953   -1.1024    2.7388 H         1 <0>         0.0000
     57 H22        -1.4146   -0.9992    3.1233 H         1 <0>         0.0000
     58 H23        -1.2903    1.5076    2.9721 H         1 <0>         0.0000
     59 H24         0.4118    1.4034    2.5892 H         1 <0>         0.0000
     60 H25         0.2260   -4.2152   -3.8819 H         1 <0>         0.0000
     61 H26         0.8176   -5.8379   -3.6725 H         1 <0>         0.0000
     62 H27        -1.2048   -6.2215   -4.6922 H         1 <0>         0.0000
     63 H28        -1.6062   -6.5308   -3.0096 H         1 <0>         0.0000
     64 H29         0.2580   -5.9038   -1.3110 H         1 <0>         0.0000
     65 H30         1.3725   -4.5877   -1.7111 H         1 <0>         0.0000
     66 H31        -1.5178   -4.4067   -1.1431 H         1 <0>         0.0000
@<TRIPOS>BOND
     1    1    5 1
     2    1   25 3
     3    2    3 ar
     4    2    5 ar
     5    2   36 1
     6    3    7 ar
     7    3   37 1
     8    4    6 ar
     9    4    7 ar
    10    4   38 1
    11    5    6 ar
    12    6   24 1
    13    7   26 1
    14    8   15 1
    15    8   26 am
    16    8   30 2
    17    9   26 1
    18    9   27 1
    19    9   35 2
    20   10   19 1
    21   10   28 am
    22   10   31 2
    23   11   13 1
    24   11   28 1
    25   11   39 1
    26   11   40 1
    27   12   14 1
    28   12   28 1
    29   12   41 1
    30   12   42 1
    31   13   29 1
    32   13   43 1
    33   13   44 1
    34   14   29 1
    35   14   45 1
    36   14   46 1
    37   15   16 1
    38   15   17 1
    39   15   27 1
    40   16   47 1
    41   16   48 1
    42   16   49 1
    43   17   50 1
    44   17   51 1
    45   17   52 1
    46   18   20 1
    47   18   53 1
    48   18   54 1
    49   18   55 1
    50   19   20 1
    51   19   56 1
    52   19   57 1
    53   20   58 1
    54   20   59 1
    55   21   22 1
    56   21   23 1
    57   21   60 1
    58   21   61 1
    59   22   27 1
    60   22   62 1
    61   22   63 1
    62   23   29 1
    63   23   64 1
    64   23   65 1
    65   24   32 1
    66   24   33 1
    67   24   34 1
    68   29   66 1
