@<TRIPOS>MOLECULE
*****
   69    70     0     0     0
SMALL
NO_CHARGES

@<TRIPOS>ATOM
      1 C1         -1.4013    3.0866   -1.0376 C.ar      1 <0>         0.0000
      2 C2         -0.3946    3.5854   -0.1909 C.ar      1 <0>         0.0000
      3 C3         -1.5339    1.7146   -1.2030 C.ar      1 <0>         0.0000
      4 C4          0.4581    2.7227    0.4922 C.ar      1 <0>         0.0000
      5 C5         -0.6731    0.8254   -0.5327 C.ar      1 <0>         0.0000
      6 C6          0.3147    1.3385    0.3277 C.ar      1 <0>         0.0000
      7 C7         -0.7665   -0.6273   -0.7614 C.2       1 <0>         0.0000
      8 C8          0.3911   -1.4744   -0.1798 C.3       1 <0>         0.0000
      9 C9          0.7863   -0.8619    1.2054 C.3       1 <0>         0.0000
     10 C10        -0.3892   -0.8953    2.1995 C.3       1 <0>         0.0000
     11 C11         3.3113   -2.9097    6.1869 C.3       1 <0>         0.0000
     12 C12         5.6517    0.8361    3.8152 C.3       1 <0>         0.0000
     13 C13         2.1643   -3.6609   -4.6199 C.3       1 <0>         0.0000
     14 C14        -1.1086   -6.0183   -0.2856 C.3       1 <0>         0.0000
     15 C15         1.5574   -1.3232   -1.1987 C.3       1 <0>         0.0000
     16 C16        -0.1024   -2.9399   -0.0801 C.3       1 <0>         0.0000
     17 C17         2.0399   -1.5007    1.8225 C.3       1 <0>         0.0000
     18 C18         2.4665   -0.9206    3.1762 C.3       1 <0>         0.0000
     19 C19         3.5633   -1.4069    6.0564 C.3       1 <0>         0.0000
     20 C20         4.6906    0.3924    4.9189 C.3       1 <0>         0.0000
     21 C21         3.8257   -1.5043    3.6088 C.3       1 <0>         0.0000
     22 C22         1.2417   -1.8919   -2.5899 C.3       1 <0>         0.0000
     23 C23         0.9584   -4.0499   -0.0144 C.3       1 <0>         0.0000
     24 N1          4.3671   -1.0383    4.8869 N.3       1 <0>         0.0000
     25 O1         -1.6564   -1.1281   -1.4425 O.2       1 <0>         0.0000
     26 O2          3.5677   -1.5009   -3.8896 O.2       1 <0>         0.0000
     27 O3          3.3687   -3.4539   -2.2603 O.2       1 <0>         0.0000
     28 O4          0.1944   -5.0400   -2.3772 O.2       1 <0>         0.0000
     29 O5          1.4471   -6.5769   -0.7612 O.2       1 <0>         0.0000
     30 O6          1.1731    0.5352    1.0075 O.3       1 <0>         0.0000
     31 S1          2.7684   -2.5912   -3.3020 S.o2      1 <0>         0.0000
     32 S2          0.4725   -5.5034   -0.9987 S.o2      1 <0>         0.0000
     33 H1         -2.0632    3.7706   -1.5605 H         1 <0>         0.0000
     34 H2         -0.2817    4.6585   -0.0594 H         1 <0>         0.0000
     35 H3         -2.2901    1.2926   -1.8583 H         1 <0>         0.0000
     36 H4          1.2313    3.0949    1.1576 H         1 <0>         0.0000
     37 H5         -0.1955   -0.1933    3.0123 H         1 <0>         0.0000
     38 H6         -0.4993   -1.8909    2.6366 H         1 <0>         0.0000
     39 H7         -1.3411   -0.6212    1.7384 H         1 <0>         0.0000
     40 H8          2.6191   -3.2860    5.4269 H         1 <0>         0.0000
     41 H9          4.2499   -3.4667    6.1014 H         1 <0>         0.0000
     42 H10         2.8693   -3.1267    7.1649 H         1 <0>         0.0000
     43 H11         6.5305    0.1842    3.7838 H         1 <0>         0.0000
     44 H12         5.1846    0.8318    2.8255 H         1 <0>         0.0000
     45 H13         5.9892    1.8594    4.0103 H         1 <0>         0.0000
     46 H14         3.0532   -4.0914   -5.0850 H         1 <0>         0.0000
     47 H15         1.5380   -4.4337   -4.1722 H         1 <0>         0.0000
     48 H16         1.6163   -3.0519   -5.3413 H         1 <0>         0.0000
     49 H17        -1.4181   -6.8965   -0.8552 H         1 <0>         0.0000
     50 H18        -0.9533   -6.2829    0.7618 H         1 <0>         0.0000
     51 H19        -1.8408   -5.2182   -0.3967 H         1 <0>         0.0000
     52 H20         2.4323   -1.8372   -0.8014 H         1 <0>         0.0000
     53 H21         1.8396   -0.2733   -1.2864 H         1 <0>         0.0000
     54 H22        -0.7310   -3.0937   -0.9582 H         1 <0>         0.0000
     55 H23        -0.7800   -3.0326    0.7712 H         1 <0>         0.0000
     56 H24         1.8657   -2.5749    1.9329 H         1 <0>         0.0000
     57 H25         2.8718   -1.3867    1.1224 H         1 <0>         0.0000
     58 H26         2.5323    0.1685    3.0982 H         1 <0>         0.0000
     59 H27         1.7133   -1.1418    3.9395 H         1 <0>         0.0000
     60 H28         4.1194   -1.0703    6.9391 H         1 <0>         0.0000
     61 H29         2.5953   -0.8702    6.0843 H         1 <0>         0.0000
     62 H30         3.7829    1.0253    4.8887 H         1 <0>         0.0000
     63 H31         5.1616    0.5859    5.8897 H         1 <0>         0.0000
     64 H32         4.5673   -1.2943    2.8322 H         1 <0>         0.0000
     65 H33         3.7529   -2.5960    3.6506 H         1 <0>         0.0000
     66 H34         0.5360   -2.7220   -2.5678 H         1 <0>         0.0000
     67 H35         0.8792   -1.1341   -3.2869 H         1 <0>         0.0000
     68 H36         1.9212   -3.7937   -0.4635 H         1 <0>         0.0000
     69 H37         1.1443   -4.4293    0.9926 H         1 <0>         0.0000
@<TRIPOS>BOND
     1    1    2 ar
     2    1    3 ar
     3    1   33 1
     4    2    4 ar
     5    2   34 1
     6    3    5 ar
     7    3   35 1
     8    4    6 ar
     9    4   36 1
    10    5    6 ar
    11    5    7 1
    12    6   30 1
    13    7    8 1
    14    7   25 2
    15    8    9 1
    16    8   15 1
    17    8   16 1
    18    9   10 1
    19    9   17 1
    20    9   30 1
    21   10   37 1
    22   10   38 1
    23   10   39 1
    24   11   19 1
    25   11   40 1
    26   11   41 1
    27   11   42 1
    28   12   20 1
    29   12   43 1
    30   12   44 1
    31   12   45 1
    32   13   31 1
    33   13   46 1
    34   13   47 1
    35   13   48 1
    36   14   32 1
    37   14   49 1
    38   14   50 1
    39   14   51 1
    40   15   22 1
    41   15   52 1
    42   15   53 1
    43   16   23 1
    44   16   54 1
    45   16   55 1
    46   17   18 1
    47   17   56 1
    48   17   57 1
    49   18   21 1
    50   18   58 1
    51   18   59 1
    52   19   24 1
    53   19   60 1
    54   19   61 1
    55   20   24 1
    56   20   62 1
    57   20   63 1
    58   21   24 1
    59   21   64 1
    60   21   65 1
    61   22   31 1
    62   22   66 1
    63   22   67 1
    64   23   32 1
    65   23   68 1
    66   23   69 1
    67   26   31 2
    68   27   31 2
    69   28   32 2
    70   29   32 2
