@<TRIPOS>MOLECULE
*****
   52    56     0     0     0
SMALL
NO_CHARGES

@<TRIPOS>ATOM
      1 C1         -1.4022    1.9058    0.2902 C.ar      1 <0>         0.0000
      2 C2         -1.6655    0.7003   -0.3924 C.ar      1 <0>         0.0000
      3 C3         -3.6144    4.4491    5.1885 C.ar      1 <0>         0.0000
      4 C4         -1.9635    2.1646    1.5422 C.ar      1 <0>         0.0000
      5 C5         -3.5582    3.5057    4.1569 C.ar      1 <0>         0.0000
      6 C6         -2.7381   -3.3085    3.5062 C.ar      1 <0>         0.0000
      7 C7         -2.7189   -3.9957    1.1893 C.ar      1 <0>         0.0000
      8 C8         -2.4910   -0.2742    0.1750 C.ar      1 <0>         0.0000
      9 C9         -3.6837    4.0542    6.5252 C.ar      1 <0>         0.0000
     10 C10        -1.7512   -4.2531    3.7954 C.ar      1 <0>         0.0000
     11 C11        -1.7321   -4.9517    1.4623 C.ar      1 <0>         0.0000
     12 C12        -3.6074    1.7334    5.8061 C.ar      1 <0>         0.0000
     13 C13        -2.8130    1.2097    2.1323 C.ar      1 <0>         0.0000
     14 C14        -3.5561    2.1298    4.4553 C.ar      1 <0>         0.0000
     15 C15        -3.5095    1.1096    3.3976 C.2       1 <0>         0.0000
     16 C16        -3.2315   -3.1720    2.1969 C.ar      1 <0>         0.0000
     17 C17        -3.0577   -0.0054    1.4244 C.ar      1 <0>         0.0000
     18 C18        -3.6943    2.6825    6.8254 C.ar      1 <0>         0.0000
     19 C19        -1.2684   -5.0573    2.7668 C.ar      1 <0>         0.0000
     20 C20        -4.1440   -0.1310    3.4109 C.2       1 <0>         0.0000
     21 C21        -5.0310   -0.8355    4.4477 C.2       1 <0>         0.0000
     22 C22        -4.8163   -0.4579   10.4200 C.3       1 <0>         0.0000
     23 C23        -5.5551    0.8656   10.4399 C.3       1 <0>         0.0000
     24 C24        -4.1308    0.8030    9.9381 C.3       1 <0>         0.0000
     25 C25        -4.3028   -2.1403    1.8892 C.3       1 <0>         0.0000
     26 C26        -3.8603    0.9475    8.4662 C.3       1 <0>         0.0000
     27 N1         -3.8888   -0.7830    2.2095 N.pl3     1 <0>         0.0000
     28 O1         -4.4423   -1.1924    5.5095 O.co2     1 <0>         0.0000
     29 O2         -6.2163   -1.0321    4.0877 O.co2     1 <0>         0.0000
     30 O3         -3.7955    2.3485    8.1566 O.3       1 <0>         0.0000
     31 F1         -0.3030   -5.9853    3.0492 F         1 <0>         0.0000
     32 H1         -0.7410    2.6416   -0.1629 H         1 <0>         0.0000
     33 H2         -1.2110    0.5191   -1.3638 H         1 <0>         0.0000
     34 H3         -3.6238    5.5102    4.9457 H         1 <0>         0.0000
     35 H4         -1.7256    3.0870    2.0637 H         1 <0>         0.0000
     36 H5         -3.5624    3.8354    3.1229 H         1 <0>         0.0000
     37 H6         -3.1272   -2.6759    4.3027 H         1 <0>         0.0000
     38 H7         -3.0889   -3.8927    0.1710 H         1 <0>         0.0000
     39 H8         -2.6698   -1.2163   -0.3360 H         1 <0>         0.0000
     40 H9         -3.7447    4.7775    7.3340 H         1 <0>         0.0000
     41 H10        -1.3605   -4.3705    4.8020 H         1 <0>         0.0000
     42 H11        -1.3246   -5.5943    0.6873 H         1 <0>         0.0000
     43 H12        -3.6046    0.6713    6.0165 H         1 <0>         0.0000
     44 H13        -4.4960   -0.8837   11.3671 H         1 <0>         0.0000
     45 H14        -5.1057   -1.1890    9.6701 H         1 <0>         0.0000
     46 H15        -6.3354    1.0212    9.7002 H         1 <0>         0.0000
     47 H16        -5.7403    1.3379   11.4009 H         1 <0>         0.0000
     48 H17        -3.3677    1.2241   10.5892 H         1 <0>         0.0000
     49 H18        -4.5665   -2.1800    0.8273 H         1 <0>         0.0000
     50 H19        -5.2131   -2.3357    2.4608 H         1 <0>         0.0000
     51 H20        -4.6494    0.4625    7.8800 H         1 <0>         0.0000
     52 H21        -2.9106    0.4675    8.1950 H         1 <0>         0.0000
@<TRIPOS>BOND
     1    1    2 ar
     2    1    4 ar
     3    1   32 1
     4    2    8 ar
     5    2   33 1
     6    3    5 ar
     7    3    9 ar
     8    3   34 1
     9    4   13 ar
    10    4   35 1
    11    5   14 ar
    12    5   36 1
    13    6   10 ar
    14    6   16 ar
    15    6   37 1
    16    7   11 ar
    17    7   16 ar
    18    7   38 1
    19    8   17 ar
    20    8   39 1
    21    9   18 ar
    22    9   40 1
    23   10   19 ar
    24   10   41 1
    25   11   19 ar
    26   11   42 1
    27   12   14 ar
    28   12   18 ar
    29   12   43 1
    30   13   15 1
    31   13   17 ar
    32   14   15 1
    33   15   20 2
    34   16   25 1
    35   17   27 1
    36   18   30 1
    37   19   31 1
    38   20   21 1
    39   20   27 1
    40   21   28 1
    41   21   29 2
    42   22   23 1
    43   22   24 1
    44   22   44 1
    45   22   45 1
    46   23   24 1
    47   23   46 1
    48   23   47 1
    49   24   26 1
    50   24   48 1
    51   25   27 1
    52   25   49 1
    53   25   50 1
    54   26   30 1
    55   26   51 1
    56   26   52 1
