@<TRIPOS>MOLECULE
*****
   66    68     0     0     0
SMALL
NO_CHARGES

@<TRIPOS>ATOM
      1 C1         -9.4820   -1.8953    7.0563 C.1       1 <0>         0.0000
      2 C2         -7.1267   -1.4829    6.5801 C.ar      1 <0>         0.0000
      3 C3         -5.7717   -1.7188    6.7940 C.ar      1 <0>         0.0000
      4 C4         -6.3354   -3.3811    8.4688 C.ar      1 <0>         0.0000
      5 C5         -8.0980   -2.1858    7.3100 C.ar      1 <0>         0.0000
      6 C6         -7.6898   -3.1398    8.2645 C.ar      1 <0>         0.0000
      7 C7         -5.3794   -2.6748    7.7330 C.ar      1 <0>         0.0000
      8 C8         -3.4404   -2.8962    9.2575 C.2       1 <0>         0.0000
      9 C9         -3.0280   -3.2279    6.9940 C.2       1 <0>         0.0000
     10 C10        -1.9859    0.9183    0.7193 C.2       1 <0>         0.0000
     11 C11        -1.7287   -0.8297    2.4173 C.3       1 <0>         0.0000
     12 C12        -0.5095    1.2686    2.7349 C.3       1 <0>         0.0000
     13 C13        -0.4904   -1.5958    2.8690 C.3       1 <0>         0.0000
     14 C14         0.7090    0.4587    3.1809 C.3       1 <0>         0.0000
     15 C15        -1.9514   -3.1993    9.0933 C.3       1 <0>         0.0000
     16 C16        -1.6130   -4.4930    9.8517 C.3       1 <0>         0.0000
     17 C17        -1.1224   -2.0111    9.6019 C.3       1 <0>         0.0000
     18 C18        -2.0019    3.9391   -1.3948 C.3       1 <0>         0.0000
     19 C19        -1.6103    2.3354    0.2619 C.3       1 <0>         0.0000
     20 C20        -0.0159   -2.3889    6.2672 C.3       1 <0>         0.0000
     21 C21         1.0387   -2.7302    5.2110 C.3       1 <0>         0.0000
     22 C22        -0.5953   -3.6413    6.9359 C.3       1 <0>         0.0000
     23 C23         1.4439   -1.5151    4.3660 C.3       1 <0>         0.0000
     24 C24        -8.7169   -3.9099    9.0653 C.3       1 <0>         0.0000
     25 N1        -10.5896   -1.6250    6.8197 N.1       1 <0>         0.0000
     26 N2         -4.0002   -2.9215    7.9811 N.am      1 <0>         0.0000
     27 N3         -1.8482   -3.3720    7.6384 N.pl3     1 <0>         0.0000
     28 N4         -1.3549    0.4680    1.8564 N.am      1 <0>         0.0000
     29 N5          0.2981   -0.7931    3.8100 N.3       1 <0>         0.0000
     30 O1         -4.0237   -2.6775   10.3011 O.2       1 <0>         0.0000
     31 O2         -2.7879    0.2346    0.0944 O.2       1 <0>         0.0000
     32 O3         -2.2944    2.6334   -0.9269 O.3       1 <0>         0.0000
     33 F1         -8.1340   -4.7851    9.9173 F         1 <0>         0.0000
     34 F2         -9.4916   -3.0845    9.8065 F         1 <0>         0.0000
     35 F3         -9.5412   -4.6221    8.2622 F         1 <0>         0.0000
     36 S1         -3.3200   -3.4020    5.3679 S.2       1 <0>         0.0000
     37 H1         -7.4437   -0.7466    5.8491 H         1 <0>         0.0000
     38 H2         -5.0257   -1.1713    6.2310 H         1 <0>         0.0000
     39 H3         -6.0215   -4.1117    9.2032 H         1 <0>         0.0000
     40 H4         -2.2729   -1.3843    1.6540 H         1 <0>         0.0000
     41 H5         -2.3947   -0.6831    3.2790 H         1 <0>         0.0000
     42 H6         -1.0808    1.5757    3.6233 H         1 <0>         0.0000
     43 H7         -0.1675    2.1695    2.2262 H         1 <0>         0.0000
     44 H8         -0.8264   -2.5106    3.3621 H         1 <0>         0.0000
     45 H9          0.1111   -1.8836    1.9857 H         1 <0>         0.0000
     46 H10         1.3618    0.2812    2.3039 H         1 <0>         0.0000
     47 H11         1.2794    1.0489    3.9068 H         1 <0>         0.0000
     48 H12        -0.5456   -4.7180    9.7748 H         1 <0>         0.0000
     49 H13        -2.1783   -5.3390    9.4507 H         1 <0>         0.0000
     50 H14        -1.8662   -4.3690   10.9074 H         1 <0>         0.0000
     51 H15        -0.0540   -2.2197    9.4964 H         1 <0>         0.0000
     52 H16        -1.3432   -1.8425   10.6588 H         1 <0>         0.0000
     53 H17        -1.3579   -1.1011    9.0436 H         1 <0>         0.0000
     54 H18        -2.5731    4.0812   -2.3145 H         1 <0>         0.0000
     55 H19        -0.9297    4.0613   -1.6147 H         1 <0>         0.0000
     56 H20        -2.2992    4.7080   -0.6645 H         1 <0>         0.0000
     57 H21        -0.5192    2.3996    0.1105 H         1 <0>         0.0000
     58 H22        -1.8711    3.0580    1.0546 H         1 <0>         0.0000
     59 H23        -0.8295   -1.8454    5.7843 H         1 <0>         0.0000
     60 H24         0.4073   -1.7166    7.0230 H         1 <0>         0.0000
     61 H25         1.9444   -3.1365    5.6786 H         1 <0>         0.0000
     62 H26         0.6545   -3.5241    4.5607 H         1 <0>         0.0000
     63 H27         0.1044   -4.0731    7.6563 H         1 <0>         0.0000
     64 H28        -0.8024   -4.4036    6.1797 H         1 <0>         0.0000
     65 H29         1.9955   -0.8082    4.9979 H         1 <0>         0.0000
     66 H30         2.1418   -1.8449    3.5724 H         1 <0>         0.0000
@<TRIPOS>BOND
     1    1    5 1
     2    1   25 3
     3    2    3 ar
     4    2    5 ar
     5    2   37 1
     6    3    7 ar
     7    3   38 1
     8    4    6 ar
     9    4    7 ar
    10    4   39 1
    11    5    6 ar
    12    6   24 1
    13    7   26 1
    14    8   15 1
    15    8   26 am
    16    8   30 2
    17    9   26 1
    18    9   27 1
    19    9   36 2
    20   10   19 1
    21   10   28 am
    22   10   31 2
    23   11   13 1
    24   11   28 1
    25   11   40 1
    26   11   41 1
    27   12   14 1
    28   12   28 1
    29   12   42 1
    30   12   43 1
    31   13   29 1
    32   13   44 1
    33   13   45 1
    34   14   29 1
    35   14   46 1
    36   14   47 1
    37   15   16 1
    38   15   17 1
    39   15   27 1
    40   16   48 1
    41   16   49 1
    42   16   50 1
    43   17   51 1
    44   17   52 1
    45   17   53 1
    46   18   32 1
    47   18   54 1
    48   18   55 1
    49   18   56 1
    50   19   32 1
    51   19   57 1
    52   19   58 1
    53   20   21 1
    54   20   22 1
    55   20   59 1
    56   20   60 1
    57   21   23 1
    58   21   61 1
    59   21   62 1
    60   22   27 1
    61   22   63 1
    62   22   64 1
    63   23   29 1
    64   23   65 1
    65   23   66 1
    66   24   33 1
    67   24   34 1
    68   24   35 1
