@<TRIPOS>MOLECULE
*****
   66    70     0     0     0
SMALL
NO_CHARGES

@<TRIPOS>ATOM
      1 C1         -1.3615   -1.9007   -4.6477 C.ar      1 <0>         0.0000
      2 C2         -0.7188   -3.7640   -3.1741 C.ar      1 <0>         0.0000
      3 C3         -1.1780   -4.1037   -5.5393 C.ar      1 <0>         0.0000
      4 C4         -0.9894   -2.4046   -3.3726 C.ar      1 <0>         0.0000
      5 C5         -1.4524   -2.7487   -5.7399 C.ar      1 <0>         0.0000
      6 C6         -1.2350   -5.1730   -6.4779 C.2       1 <0>         0.0000
      7 C7         -0.8241   -4.6197   -4.2790 C.ar      1 <0>         0.0000
      8 C8         -0.9174   -6.3300   -5.7927 C.2       1 <0>         0.0000
      9 C9          0.0010   -0.1730  -11.2280 C.2       1 <0>         0.0000
     10 C10        -1.5991   -4.8691   -7.9049 C.3       1 <0>         0.0000
     11 C11        -0.5529   -1.8064   -7.9092 C.3       1 <0>         0.0000
     12 C12        -1.5487   -2.5803  -10.0879 C.3       1 <0>         0.0000
     13 C13        -1.7666    1.1108   -1.6205 C.3       1 <0>         0.0000
     14 C14        -0.2785    0.9827   -1.3038 C.3       1 <0>         0.0000
     15 C15        -1.7868   -2.3484   -7.1619 C.3       1 <0>         0.0000
     16 C16        -0.8744   -1.4622   -2.2002 C.3       1 <0>         0.0000
     17 C17        -0.9207   -1.4015   -9.3355 C.3       1 <0>         0.0000
     18 C18        -2.4215   -3.5568   -7.9058 C.3       1 <0>         0.0000
     19 C19        -0.8166   -7.7478   -6.2536 C.3       1 <0>         0.0000
     20 C20         0.4795    2.7162  -12.7541 C.3       1 <0>         0.0000
     21 C21         3.2362   -0.7294  -11.5758 C.3       1 <0>         0.0000
     22 C22        -3.5115   -4.1146  -10.1366 C.3       1 <0>         0.0000
     23 C23         0.8435    1.2520  -13.0057 C.3       1 <0>         0.0000
     24 C24         2.4081    0.5000  -11.1868 C.3       1 <0>         0.0000
     25 N1         -0.6629   -5.9858   -4.4625 N.pl3     1 <0>         0.0000
     26 N2          0.2431   -0.9488  -10.0817 N.am      1 <0>         0.0000
     27 N3          1.0588    0.5002  -11.7582 N.am      1 <0>         0.0000
     28 N4         -2.7527   -3.0997   -9.3324 N.4       1 <0>         0.0000
     29 O1         -1.1381   -0.1588  -11.7193 O.2       1 <0>         0.0000
     30 S1         -2.4757   -0.5726   -1.8389 S.3       1 <0>         0.0000
     31 S2          0.4387   -0.2058   -2.4894 S.3       1 <0>         0.0000
     32 H1         -1.5785   -0.8400   -4.7390 H         1 <0>         0.0000
     33 H2         -0.4421   -4.1284   -2.1881 H         1 <0>         0.0000
     34 H3         -0.6999   -4.7581   -8.5219 H         1 <0>         0.0000
     35 H4         -2.1918   -5.6769   -8.3443 H         1 <0>         0.0000
     36 H5         -0.1696   -0.9407   -7.3604 H         1 <0>         0.0000
     37 H6          0.2413   -2.5613   -7.9143 H         1 <0>         0.0000
     38 H7         -1.8875   -2.2517  -11.0703 H         1 <0>         0.0000
     39 H8         -0.8420   -3.4029  -10.1971 H         1 <0>         0.0000
     40 H9         -2.3019    1.5927   -0.7974 H         1 <0>         0.0000
     41 H10        -1.9180    1.6907   -2.5336 H         1 <0>         0.0000
     42 H11         0.2413    1.9369   -1.4306 H         1 <0>         0.0000
     43 H12        -0.1212    0.6296   -0.2811 H         1 <0>         0.0000
     44 H13        -2.5424   -1.5504   -7.1357 H         1 <0>         0.0000
     45 H14        -0.6154   -2.0279   -1.3036 H         1 <0>         0.0000
     46 H15        -1.6686   -0.5957   -9.3007 H         1 <0>         0.0000
     47 H16        -3.3927   -3.7651   -7.4472 H         1 <0>         0.0000
     48 H17         0.2085   -8.1271   -6.1709 H         1 <0>         0.0000
     49 H18        -1.4643   -8.4095   -5.6673 H         1 <0>         0.0000
     50 H19        -1.1157   -7.8304   -7.3010 H         1 <0>         0.0000
     51 H20        -0.4601    2.7831  -12.1989 H         1 <0>         0.0000
     52 H21         1.2591    3.2315  -12.1828 H         1 <0>         0.0000
     53 H22         0.3555    3.2437  -13.7053 H         1 <0>         0.0000
     54 H23         2.7687   -1.6526  -11.2207 H         1 <0>         0.0000
     55 H24         3.3329   -0.7980  -12.6634 H         1 <0>         0.0000
     56 H25         4.2417   -0.6638  -11.1478 H         1 <0>         0.0000
     57 H26        -2.8391   -4.9237  -10.4144 H         1 <0>         0.0000
     58 H27        -4.3381   -4.4993   -9.5380 H         1 <0>         0.0000
     59 H28        -3.8905   -3.6284  -11.0359 H         1 <0>         0.0000
     60 H29         1.7621    1.1758  -13.5963 H         1 <0>         0.0000
     61 H30         0.0489    0.7555  -13.5630 H         1 <0>         0.0000
     62 H31         2.9035    1.4081  -11.5393 H         1 <0>         0.0000
     63 H32         2.3591    0.6113  -10.0969 H         1 <0>         0.0000
     64 H33        -0.4173   -6.6513   -3.7415 H         1 <0>         0.0000
     65 H34         1.0599   -0.7390   -9.5230 H         1 <0>         0.0000
     66 H35        -3.3773   -2.2940   -9.2186 H         1 <0>         0.0000
@<TRIPOS>BOND
     1    1    4 ar
     2    1    5 ar
     3    1   32 1
     4    2    4 ar
     5    2    7 ar
     6    2   33 1
     7    3    5 ar
     8    3    6 1
     9    3    7 ar
    10    4   16 1
    11    5   15 1
    12    6    8 2
    13    6   10 1
    14    7   25 1
    15    8   19 1
    16    8   25 1
    17    9   26 am
    18    9   27 am
    19    9   29 2
    20   10   18 1
    21   10   34 1
    22   10   35 1
    23   11   15 1
    24   11   17 1
    25   11   36 1
    26   11   37 1
    27   12   17 1
    28   12   28 1
    29   12   38 1
    30   12   39 1
    31   13   14 1
    32   13   30 1
    33   13   40 1
    34   13   41 1
    35   14   31 1
    36   14   42 1
    37   14   43 1
    38   15   18 1
    39   15   44 1
    40   16   31 1
    41   16   30 1
    42   16   45 1
    43   17   26 1
    44   17   46 1
    45   18   28 1
    46   18   47 1
    47   19   48 1
    48   19   49 1
    49   19   50 1
    50   20   23 1
    51   20   51 1
    52   20   52 1
    53   20   53 1
    54   21   24 1
    55   21   54 1
    56   21   55 1
    57   21   56 1
    58   22   28 1
    59   22   57 1
    60   22   58 1
    61   22   59 1
    62   23   27 1
    63   23   60 1
    64   23   61 1
    65   24   27 1
    66   24   62 1
    67   24   63 1
    68   25   64 1
    69   26   65 1
    70   28   66 1
