@<TRIPOS>MOLECULE
*****
   40    41     0     0     0
SMALL
NO_CHARGES

@<TRIPOS>ATOM
      1 C1          3.5061   -1.0929    3.0931 C.ar      1 <0>         0.0000
      2 C2          3.2556    0.2468    2.7822 C.ar      1 <0>         0.0000
      3 C3          2.8760   -2.0980    2.3500 C.ar      1 <0>         0.0000
      4 C4          2.3854    0.5709    1.7357 C.ar      1 <0>         0.0000
      5 C5          2.0058   -1.7715    1.3064 C.ar      1 <0>         0.0000
      6 C6         -5.2761   -1.4427    0.2515 C.ar      1 <0>         0.0000
      7 C7         -5.1415    0.7946    1.2498 C.ar      1 <0>         0.0000
      8 C8         -4.0889   -1.2149   -0.4115 C.ar      1 <0>         0.0000
      9 C9         -3.9546    1.0172    0.5846 C.ar      1 <0>         0.0000
     10 C10         1.7516   -0.4280    0.9811 C.ar      1 <0>         0.0000
     11 C11        -5.8853   -0.4544    1.1336 C.ar      1 <0>         0.0000
     12 C12        -3.4113    0.0201   -0.2620 C.ar      1 <0>         0.0000
     13 C13         0.8058   -1.8891   -1.9757 C.2       1 <0>         0.0000
     14 C14         0.2465   -3.1989   -3.8478 C.3       1 <0>         0.0000
     15 C15         1.2474   -0.5061   -1.5439 C.3       1 <0>         0.0000
     16 C16        -0.6447   -0.3926    0.2320 C.3       1 <0>         0.0000
     17 C17         0.8033   -0.0277   -0.1391 C.3       1 <0>         0.0000
     18 O1         -6.9697   -0.6619    1.7464 O.3       1 <0>         0.0000
     19 O2          0.5130   -2.8247   -1.2499 O.2       1 <0>         0.0000
     20 O3         -1.7048   -0.6197   -2.1857 O.2       1 <0>         0.0000
     21 O4         -1.5369    1.6964   -1.1162 O.2       1 <0>         0.0000
     22 O5          0.8196   -1.9886   -3.3242 O.3       1 <0>         0.0000
     23 S1         -1.8541    0.2501   -0.9876 S.o2      1 <0>         0.0000
     24 H1          4.1802   -1.3511    3.9067 H         1 <0>         0.0000
     25 H2          3.7337    1.0395    3.3536 H         1 <0>         0.0000
     26 H3          3.0595   -3.1438    2.5873 H         1 <0>         0.0000
     27 H4          2.1910    1.6159    1.5024 H         1 <0>         0.0000
     28 H5          1.5185   -2.5545    0.7348 H         1 <0>         0.0000
     29 H6         -5.8050   -2.3856    0.1271 H         1 <0>         0.0000
     30 H7         -5.5690    1.5655    1.8879 H         1 <0>         0.0000
     31 H8         -3.6649   -1.9708   -1.0691 H         1 <0>         0.0000
     32 H9         -3.4304    1.9655    0.6833 H         1 <0>         0.0000
     33 H10         0.3011   -3.1017   -4.9330 H         1 <0>         0.0000
     34 H11        -0.7929   -3.2818   -3.5223 H         1 <0>         0.0000
     35 H12         0.8076   -4.0750   -3.5105 H         1 <0>         0.0000
     36 H13         0.8712    0.1880   -2.2967 H         1 <0>         0.0000
     37 H14         2.3425   -0.4791   -1.6024 H         1 <0>         0.0000
     38 H15        -0.8064   -1.4690    0.2916 H         1 <0>         0.0000
     39 H16        -0.9120    0.0655    1.1873 H         1 <0>         0.0000
     40 H17         0.8290    1.0643   -0.1983 H         1 <0>         0.0000
@<TRIPOS>BOND
     1    1    3 ar
     2    1    2 ar
     3    1   24 1
     4    2    4 ar
     5    2   25 1
     6    3    5 ar
     7    3   26 1
     8    4   10 ar
     9    4   27 1
    10    5   10 ar
    11    5   28 1
    12    6    8 ar
    13    6   11 ar
    14    6   29 1
    15    7    9 ar
    16    7   11 ar
    17    7   30 1
    18    8   12 ar
    19    8   31 1
    20    9   12 ar
    21    9   32 1
    22   10   17 1
    23   11   18 1
    24   12   23 1
    25   13   15 1
    26   13   19 2
    27   13   22 1
    28   14   22 1
    29   14   33 1
    30   14   34 1
    31   14   35 1
    32   15   17 1
    33   15   36 1
    34   15   37 1
    35   16   17 1
    36   16   23 1
    37   16   38 1
    38   16   39 1
    39   17   40 1
    40   20   23 2
    41   21   23 2
