@<TRIPOS>MOLECULE
*****
   33    34     0     0     0
SMALL
NO_CHARGES

@<TRIPOS>ATOM
      1 C1         -1.1586   -2.5446    1.4451 C.ar      1 <0>         0.0000
      2 C2         -0.9552   -1.1937    1.1431 C.ar      1 <0>         0.0000
      3 C3          0.7584   -1.8521   -0.4378 C.ar      1 <0>         0.0000
      4 C4         -0.4212   -3.5633    0.8282 C.ar      1 <0>         0.0000
      5 C5          0.5541   -3.1911   -0.1337 C.ar      1 <0>         0.0000
      6 C6          0.0117   -0.8430    0.1944 C.ar      1 <0>         0.0000
      7 C7          0.3522   -5.8858    0.7986 C.2       1 <0>         0.0000
      8 C8         -0.6022   -4.9959    1.1513 C.2       1 <0>         0.0000
      9 C9         -2.4139   -6.7755    1.5458 C.2       1 <0>         0.0000
     10 C10         1.3144   -4.2811   -0.8554 C.3       1 <0>         0.0000
     11 C11         1.6026   -5.4677    0.0691 C.3       1 <0>         0.0000
     12 C12        -1.5089   -5.4258    3.4817 C.3       1 <0>         0.0000
     13 C13        -0.4274    1.4962    0.4278 C.3       1 <0>         0.0000
     14 C14        -1.8095   -5.4288    1.9741 C.3       1 <0>         0.0000
     15 O1         -2.9148   -7.5627    2.3164 O.2       1 <0>         0.0000
     16 O2         -2.4429   -7.0164    0.2065 O.3       1 <0>         0.0000
     17 O3          0.3037    0.4373   -0.1848 O.3       1 <0>         0.0000
     18 H1         -1.9042   -2.7863    2.1959 H         1 <0>         0.0000
     19 H2         -1.5459   -0.4413    1.6528 H         1 <0>         0.0000
     20 H3          1.5000   -1.5574   -1.1759 H         1 <0>         0.0000
     21 H4          0.2528   -6.9312    1.0858 H         1 <0>         0.0000
     22 H5          0.7010   -4.6334   -1.6979 H         1 <0>         0.0000
     23 H6          2.2406   -3.8851   -1.2823 H         1 <0>         0.0000
     24 H7          2.3727   -5.1920    0.8058 H         1 <0>         0.0000
     25 H8          2.0088   -6.3056   -0.5065 H         1 <0>         0.0000
     26 H9         -0.7530   -6.1797    3.7172 H         1 <0>         0.0000
     27 H10        -2.4089   -5.6552    4.0561 H         1 <0>         0.0000
     28 H11        -1.1241   -4.4500    3.7904 H         1 <0>         0.0000
     29 H12        -0.0432    2.4174   -0.0119 H         1 <0>         0.0000
     30 H13        -0.2667    1.5163    1.5126 H         1 <0>         0.0000
     31 H14        -1.5008    1.4131    0.2181 H         1 <0>         0.0000
     32 H15        -2.6254   -4.7197    1.7823 H         1 <0>         0.0000
     33 H16        -1.8798   -6.3552   -0.2395 H         1 <0>         0.0000
@<TRIPOS>BOND
     1    1    2 ar
     2    1    4 ar
     3    1   18 1
     4    2    6 ar
     5    2   19 1
     6    3    5 ar
     7    3    6 ar
     8    3   20 1
     9    4    5 ar
    10    4    8 1
    11    5   10 1
    12    6   17 1
    13    7    8 2
    14    7   11 1
    15    7   21 1
    16    8   14 1
    17    9   14 1
    18    9   15 2
    19    9   16 1
    20   10   11 1
    21   10   22 1
    22   10   23 1
    23   11   24 1
    24   11   25 1
    25   12   14 1
    26   12   26 1
    27   12   27 1
    28   12   28 1
    29   13   17 1
    30   13   29 1
    31   13   30 1
    32   13   31 1
    33   14   32 1
    34   16   33 1
