@<TRIPOS>MOLECULE
*****
   25    25     0     0     0
SMALL
NO_CHARGES

@<TRIPOS>ATOM
      1 C1          1.8488   -1.3413    0.0030 C.ar      1 <0>         0.0000
      2 C2          0.7650   -0.7298    0.6337 C.ar      1 <0>         0.0000
      3 C3          1.7224   -1.2987    2.7718 C.ar      1 <0>         0.0000
      4 C4          2.8127   -1.9016    2.1238 C.ar      1 <0>         0.0000
      5 C5          2.9004   -1.9353    0.7153 C.ar      1 <0>         0.0000
      6 C6          0.7014   -0.7028    2.0305 C.ar      1 <0>         0.0000
      7 C7          3.9037   -2.4652    2.9909 C.2       1 <0>         0.0000
      8 C8          5.0865   -1.4720   -0.4326 C.3       1 <0>         0.0000
      9 C9          3.6356   -3.3901   -1.2471 C.3       1 <0>         0.0000
     10 C10         4.0736   -2.5602   -0.0283 C.3       1 <0>         0.0000
     11 O1          5.0892   -2.2931    2.8139 O.2       1 <0>         0.0000
     12 O2         -0.3253   -0.1129    2.7252 O.3       1 <0>         0.0000
     13 O3          3.4783   -3.2031    4.0607 O.3       1 <0>         0.0000
     14 H1          1.8707   -1.3529   -1.0823 H         1 <0>         0.0000
     15 H2         -0.0256   -0.2748    0.0388 H         1 <0>         0.0000
     16 H3          1.6740   -1.2345    3.8557 H         1 <0>         0.0000
     17 H4          4.6280   -0.7474   -1.1158 H         1 <0>         0.0000
     18 H5          5.9468   -1.9207   -0.9416 H         1 <0>         0.0000
     19 H6          5.4496   -0.9384    0.4490 H         1 <0>         0.0000
     20 H7          3.2247   -2.7664   -2.0483 H         1 <0>         0.0000
     21 H8          2.8797   -4.1346   -0.9759 H         1 <0>         0.0000
     22 H9          4.4993   -3.9189   -1.6635 H         1 <0>         0.0000
     23 H10         4.5882   -3.2365    0.6569 H         1 <0>         0.0000
     24 H11        -0.9477    0.2875    2.0975 H         1 <0>         0.0000
     25 H12         2.5165   -3.3355    3.9989 H         1 <0>         0.0000
@<TRIPOS>BOND
     1    1    2 ar
     2    1    5 ar
     3    1   14 1
     4    2    6 ar
     5    2   15 1
     6    3    4 ar
     7    3    6 ar
     8    3   16 1
     9    4    5 ar
    10    4    7 1
    11    5   10 1
    12    6   12 1
    13    7   11 2
    14    7   13 1
    15    8   10 1
    16    8   17 1
    17    8   18 1
    18    8   19 1
    19    9   10 1
    20    9   20 1
    21    9   21 1
    22    9   22 1
    23   10   23 1
    24   12   24 1
    25   13   25 1
