@<TRIPOS>MOLECULE
*****
   24    24     0     0     0
SMALL
NO_CHARGES

@<TRIPOS>ATOM
      1 C1          2.3542   -1.0549   -0.2055 C.ar      1 <0>         0.0000
      2 C2          1.2764   -0.5988    0.5617 C.ar      1 <0>         0.0000
      3 C3          2.1959   -1.7737    2.4631 C.ar      1 <0>         0.0000
      4 C4          3.2570   -2.2617    1.6866 C.ar      1 <0>         0.0000
      5 C5          3.3498   -1.8883    0.3230 C.ar      1 <0>         0.0000
      6 C6          1.2042   -0.9678    1.9079 C.ar      1 <0>         0.0000
      7 C7          4.2553   -3.2141    2.3964 C.2       1 <0>         0.0000
      8 C8          5.0342   -1.2811   -1.5042 C.3       1 <0>         0.0000
      9 C9          4.0381   -3.6125   -1.3764 C.3       1 <0>         0.0000
     10 C10         4.4817   -2.3759   -0.5748 C.3       1 <0>         0.0000
     11 O1          4.6697   -4.1863    1.7016 O.co2     1 <0>         0.0000
     12 O2          4.5116   -2.9265    3.5947 O.co2     1 <0>         0.0000
     13 O3          0.1621   -0.5402    2.7280 O.3       1 <0>         0.0000
     14 H1          2.4082   -0.7470   -1.2477 H         1 <0>         0.0000
     15 H2          0.5120    0.0408    0.1174 H         1 <0>         0.0000
     16 H3          2.1679   -2.0291    3.5179 H         1 <0>         0.0000
     17 H4          4.3113   -0.9768   -2.2717 H         1 <0>         0.0000
     18 H5          5.9243   -1.6492   -2.0301 H         1 <0>         0.0000
     19 H6          5.3184   -0.3862   -0.9388 H         1 <0>         0.0000
     20 H7          3.1910   -3.3738   -2.0342 H         1 <0>         0.0000
     21 H8          3.7456   -4.3994   -0.6776 H         1 <0>         0.0000
     22 H9          4.8595   -3.9893   -2.0013 H         1 <0>         0.0000
     23 H10         5.2874   -2.7091    0.0804 H         1 <0>         0.0000
     24 H11        -0.4245    0.0106    2.1873 H         1 <0>         0.0000
@<TRIPOS>BOND
     1    1    2 ar
     2    1    5 ar
     3    1   14 1
     4    2    6 ar
     5    2   15 1
     6    3    4 ar
     7    3    6 ar
     8    3   16 1
     9    4    5 ar
    10    4    7 1
    11    5   10 1
    12    6   13 1
    13    7   11 1
    14    7   12 2
    15    8   10 1
    16    8   17 1
    17    8   18 1
    18    8   19 1
    19    9   10 1
    20    9   20 1
    21    9   21 1
    22    9   22 1
    23   10   23 1
    24   13   24 1
