@<TRIPOS>MOLECULE
*****
   40    43     0     0     0
SMALL
NO_CHARGES

@<TRIPOS>ATOM
      1 C1          1.9473    3.0521   -2.7206 C.ar      1 <0>         0.0000
      2 C2          1.1108    1.9383   -2.7420 C.ar      1 <0>         0.0000
      3 C3          2.8809    0.6009   -1.7741 C.ar      1 <0>         0.0000
      4 C4          5.1585    5.9507   -2.7983 C.2       1 <0>         0.0000
      5 C5          4.0702    5.1827   -3.1333 C.2       1 <0>         0.0000
      6 C6          3.2619    2.9545   -2.2626 C.ar      1 <0>         0.0000
      7 C7          1.5733    0.6946   -2.2783 C.ar      1 <0>         0.0000
      8 C8          3.7228    1.7158   -1.7673 C.ar      1 <0>         0.0000
      9 C9          5.2575    4.2246   -1.5205 C.2       1 <0>         0.0000
     10 C10         0.9256   -1.6507   -1.7209 C.2       1 <0>         0.0000
     11 C11        -2.6790   -4.3098   -4.1020 C.2       1 <0>         0.0000
     12 C12         5.6165    3.2051   -0.4967 C.3       1 <0>         0.0000
     13 C13        -0.6421   -0.3328   -2.8692 C.3       1 <0>         0.0000
     14 C14        -1.1028   -1.7973   -2.8222 C.3       1 <0>         0.0000
     15 C15        -2.9174   -5.7889   -3.8631 C.3       1 <0>         0.0000
     16 C16        -1.0288   -2.4957   -4.1802 C.3       1 <0>         0.0000
     17 N1          5.8932    5.3458   -1.7935 N.2       1 <0>         0.0000
     18 N2          4.1334    4.0666   -2.3049 N.pl3     1 <0>         0.0000
     19 N3          0.7079   -0.4211   -2.3253 N.am      1 <0>         0.0000
     20 N4         -1.3659   -3.9046   -4.0929 N.am      1 <0>         0.0000
     21 O1          1.8989   -2.0341   -1.1104 O.2       1 <0>         0.0000
     22 O2         -3.6004   -3.5227   -4.3171 O.2       1 <0>         0.0000
     23 O3         -0.1774   -2.4394   -1.9138 O.3       1 <0>         0.0000
     24 S1          5.3890    1.5138   -1.1785 S.3       1 <0>         0.0000
     25 H1          1.5647    4.0098   -3.0587 H         1 <0>         0.0000
     26 H2          0.0975    2.0590   -3.1056 H         1 <0>         0.0000
     27 H3          3.2367   -0.3396   -1.3759 H         1 <0>         0.0000
     28 H4          5.4628    6.8958   -3.2288 H         1 <0>         0.0000
     29 H5          3.3081    5.2977   -3.8889 H         1 <0>         0.0000
     30 H6          6.6688    3.3134   -0.2315 H         1 <0>         0.0000
     31 H7          5.0102    3.3040    0.4098 H         1 <0>         0.0000
     32 H8         -0.6315    0.0519   -3.8940 H         1 <0>         0.0000
     33 H9         -1.2742    0.3215   -2.2576 H         1 <0>         0.0000
     34 H10        -2.1031   -1.9096   -2.4027 H         1 <0>         0.0000
     35 H11        -3.6081   -5.9020   -3.0235 H         1 <0>         0.0000
     36 H12        -3.4030   -6.2110   -4.7471 H         1 <0>         0.0000
     37 H13        -2.0036   -6.3526   -3.6567 H         1 <0>         0.0000
     38 H14        -0.0195   -2.3930   -4.5931 H         1 <0>         0.0000
     39 H15        -1.7373   -2.0216   -4.8636 H         1 <0>         0.0000
     40 H16        -0.6677   -4.5287   -3.7104 H         1 <0>         0.0000
@<TRIPOS>BOND
     1    1    2 ar
     2    1    6 ar
     3    1   25 1
     4    2    7 ar
     5    2   26 1
     6    3    7 ar
     7    3    8 ar
     8    3   27 1
     9    4    5 2
    10    4   17 1
    11    4   28 1
    12    5   18 1
    13    5   29 1
    14    6    8 ar
    15    6   18 1
    16    7   19 1
    17    8   24 1
    18    9   12 1
    19    9   17 2
    20    9   18 1
    21   10   19 am
    22   10   21 2
    23   10   23 1
    24   11   15 1
    25   11   20 am
    26   11   22 2
    27   12   24 1
    28   12   30 1
    29   12   31 1
    30   13   14 1
    31   13   19 1
    32   13   32 1
    33   13   33 1
    34   14   16 1
    35   14   23 1
    36   14   34 1
    37   15   35 1
    38   15   36 1
    39   15   37 1
    40   16   20 1
    41   16   38 1
    42   16   39 1
    43   20   40 1
