@<TRIPOS>MOLECULE
*****
   16    16     0     0     0
SMALL
NO_CHARGES

@<TRIPOS>ATOM
      1 C1          0.1824    1.2112   -2.9003 C.2       1 <0>         0.0000
      2 C2         -0.0159    0.2787   -1.0434 C.2       1 <0>         0.0000
      3 C3          0.5476    2.2125   -3.9092 C.3       1 <0>         0.0000
      4 C4         -0.0051   -0.1215    0.3728 C.3       1 <0>         0.0000
      5 N1          0.4726    1.3746   -1.5761 N.2       1 <0>         0.0000
      6 N2         -0.4550    0.0831   -3.2206 N.2       1 <0>         0.0000
      7 N3         -0.5696   -0.4951   -2.0153 N.pl3     1 <0>         0.0000
      8 N4          1.2923   -0.5828    0.8223 N.3       1 <0>         0.0000
      9 H1          1.5520    2.0187   -4.3281 H         1 <0>         0.0000
     10 H2         -0.1626    2.2357   -4.7576 H         1 <0>         0.0000
     11 H3          0.5557    3.2408   -3.5000 H         1 <0>         0.0000
     12 H4         -0.2929    0.7108    1.0423 H         1 <0>         0.0000
     13 H5         -0.7187   -0.9392    0.5864 H         1 <0>         0.0000
     14 H6         -1.0272   -1.3960   -1.9399 H         1 <0>         0.0000
     15 H7          1.3341   -1.2326    1.5847 H         1 <0>         0.0000
     16 H8          2.1109   -0.0973    0.5070 H         1 <0>         0.0000
@<TRIPOS>BOND
     1    1    3 1
     2    1    5 1
     3    1    6 2
     4    2    4 1
     5    2    5 2
     6    2    7 1
     7    3    9 1
     8    3   10 1
     9    3   11 1
    10    4    8 1
    11    4   12 1
    12    4   13 1
    13    6    7 1
    14    7   14 1
    15    8   15 1
    16    8   16 1
