@<TRIPOS>MOLECULE
*****
   22    22     0     0     0
SMALL
NO_CHARGES

@<TRIPOS>ATOM
      1 C1          1.8851   -1.0363   -0.1124 C.ar      1 <0>         0.0000
      2 C2          0.8066   -0.4630    0.5610 C.ar      1 <0>         0.0000
      3 C3          2.9210   -1.6309    0.6081 C.ar      1 <0>         0.0000
      4 C4          0.7638   -0.4841    1.9551 C.ar      1 <0>         0.0000
      5 C5          2.8783   -1.6520    2.0022 C.ar      1 <0>         0.0000
      6 C6          1.7997   -1.0786    2.6757 C.ar      1 <0>         0.0000
      7 C7          4.1851   -3.7812    2.4047 C.3       1 <0>         0.0000
      8 C8          4.0050   -2.2955    2.7442 C.3       1 <0>         0.0000
      9 N1          5.2654   -1.6060    2.5346 N.3       1 <0>         0.0000
     10 N2          1.7360   -1.0868    4.0965 N.pl3     1 <0>         0.0000
     11 O1          1.1794   -2.0513    4.6724 O.3       1 <0>         0.0000
     12 O2          2.2382   -0.1291    4.7309 O.2       1 <0>         0.0000
     13 H1          1.9185   -1.0201   -1.1979 H         1 <0>         0.0000
     14 H2          0.0009    0.0015   -0.0000 H         1 <0>         0.0000
     15 H3          3.7559   -2.0758    0.0732 H         1 <0>         0.0000
     16 H4         -0.0826   -0.0323    2.4667 H         1 <0>         0.0000
     17 H5          4.3667   -3.9150    1.3327 H         1 <0>         0.0000
     18 H6          5.0335   -4.2112    2.9489 H         1 <0>         0.0000
     19 H7          3.2997   -4.3684    2.6733 H         1 <0>         0.0000
     20 H8          3.8270   -2.2324    3.8312 H         1 <0>         0.0000
     21 H9          6.1165   -2.1120    2.6806 H         1 <0>         0.0000
     22 H10         5.2559   -0.6084    2.4524 H         1 <0>         0.0000
@<TRIPOS>BOND
     1    1    2 ar
     2    1    3 ar
     3    1   13 1
     4    2    4 ar
     5    2   14 1
     6    3    5 ar
     7    3   15 1
     8    4    6 ar
     9    4   16 1
    10    5    6 ar
    11    5    8 1
    12    6   10 1
    13    7    8 1
    14    7   17 1
    15    7   18 1
    16    7   19 1
    17    8    9 1
    18    8   20 1
    19    9   21 1
    20    9   22 1
    21   10   11 1
    22   10   12 2
