@<TRIPOS>MOLECULE
*****
   18    17     0     0     0
SMALL
NO_CHARGES

@<TRIPOS>ATOM
      1 C1          2.5290   -0.8120   -0.5650 C.2       1 <0>         0.0000
      2 C2          1.3030   -0.8660   -0.0150 C.2       1 <0>         0.0000
      3 C3          2.9420   -1.5260   -1.8360 C.3       1 <0>         0.0000
      4 C4          0.9990   -0.1160    1.2690 C.3       1 <0>         0.0000
      5 C5         -0.6460   -0.6860   -1.4910 C.3       1 <0>         0.0000
      6 C6          0.1480   -1.6630   -0.6080 C.3       1 <0>         0.0000
      7 H1          3.3050   -0.2510   -0.1070 H         1 <0>         0.0000
      8 H2          3.8710   -1.0830   -2.1660 H         1 <0>         0.0000
      9 H3          2.1670   -1.3800   -2.5750 H         1 <0>         0.0000
     10 H4          3.0720   -2.5700   -1.5890 H         1 <0>         0.0000
     11 H5          0.6610   -0.8400    1.9960 H         1 <0>         0.0000
     12 H6          0.2330    0.6150    1.0520 H         1 <0>         0.0000
     13 H7          1.9030    0.3700    1.6080 H         1 <0>         0.0000
     14 H8          0.0230   -0.2660   -2.2420 H         1 <0>         0.0000
     15 H9         -1.0580    0.1060   -0.8660 H         1 <0>         0.0000
     16 H10        -1.4520   -1.2420   -1.9710 H         1 <0>         0.0000
     17 H11        -0.4900   -2.0280    0.1860 H         1 <0>         0.0000
     18 H12         0.5210   -2.4730   -1.2180 H         1 <0>         0.0000
@<TRIPOS>BOND
     1    1    2 2
     2    1    3 1
     3    1    7 1
     4    2    4 1
     5    2    6 1
     6    3    8 1
     7    3    9 1
     8    3   10 1
     9    4   11 1
    10    4   12 1
    11    4   13 1
    12    5    6 1
    13    5   14 1
    14    5   15 1
    15    5   16 1
    16    6   17 1
    17    6   18 1
