@<TRIPOS>MOLECULE
*****
   29    30     0     0     0
SMALL
NO_CHARGES

@<TRIPOS>ATOM
      1 C1          2.6470   -6.5570    1.8350 C.ar      1 <0>         0.0000
      2 C2          2.3762   -5.5830    0.8676 C.ar      1 <0>         0.0000
      3 C3          1.6604   -6.9135    2.7589 C.ar      1 <0>         0.0000
      4 C4          1.1217   -4.9698    0.8231 C.ar      1 <0>         0.0000
      5 C5          0.4086   -6.2922    2.7206 C.ar      1 <0>         0.0000
      6 C6          0.1288   -5.3196    1.7524 C.ar      1 <0>         0.0000
      7 C7         -1.9626   -2.5016    2.7995 C.cat     1 <0>         0.0000
      8 C8         -3.1513   -0.7260    3.6862 C.3       1 <0>         0.0000
      9 C9         -3.9974   -2.0110    3.6799 C.3       1 <0>         0.0000
     10 C10        -1.9193   -4.6317    0.3693 C.3       1 <0>         0.0000
     11 C11        -1.2259   -4.6418    1.7344 C.3       1 <0>         0.0000
     12 N1         -1.8303   -1.2816    3.3419 N.pl3     1 <0>         0.0000
     13 N2         -1.0288   -3.2338    2.2335 N.pl3     1 <0>         0.0000
     14 O1         -3.1974   -2.9674    2.8937 O.3       1 <0>         0.0000
     15 H1          3.6199   -7.0392    1.8637 H         1 <0>         0.0000
     16 H2          3.1369   -5.3104    0.1417 H         1 <0>         0.0000
     17 H3          1.8638   -7.6735    3.5077 H         1 <0>         0.0000
     18 H4          0.9201   -4.2343    0.0473 H         1 <0>         0.0000
     19 H5         -0.3546   -6.5735    3.4429 H         1 <0>         0.0000
     20 H6         -3.4761   -0.0020    2.9334 H         1 <0>         0.0000
     21 H7         -3.1297   -0.2506    4.6677 H         1 <0>         0.0000
     22 H8         -4.1230   -2.4456    4.6724 H         1 <0>         0.0000
     23 H9         -4.9586   -1.9130    3.1797 H         1 <0>         0.0000
     24 H10        -1.3281   -4.0980   -0.3787 H         1 <0>         0.0000
     25 H11        -2.0482   -5.6621    0.0288 H         1 <0>         0.0000
     26 H12        -2.9054   -4.1643    0.4352 H         1 <0>         0.0000
     27 H13        -1.8762   -5.1272    2.4649 H         1 <0>         0.0000
     28 H14        -0.9989   -0.7129    3.2324 H         1 <0>         0.0000
     29 H15        -0.0864   -2.8599    2.1792 H         1 <0>         0.0000
@<TRIPOS>BOND
     1    1    3 ar
     2    1    2 ar
     3    1   15 1
     4    2    4 ar
     5    2   16 1
     6    3    5 ar
     7    3   17 1
     8    4    6 ar
     9    4   18 1
    10    5    6 ar
    11    5   19 1
    12    6   11 1
    13    7   12 2
    14    7   13 1
    15    7   14 1
    16    8    9 1
    17    8   12 1
    18    8   20 1
    19    8   21 1
    20    9   14 1
    21    9   22 1
    22    9   23 1
    23   10   11 1
    24   10   24 1
    25   10   25 1
    26   10   26 1
    27   11   13 1
    28   11   27 1
    29   12   28 1
    30   13   29 1
