@<TRIPOS>MOLECULE
*****
   34    34     0     0     0
SMALL
NO_CHARGES

@<TRIPOS>ATOM
      1 C1          2.8444    0.9912   -1.0116 C.ar      1 <0>         0.0000
      2 C2          0.6042    0.2133   -1.4000 C.ar      1 <0>         0.0000
      3 C3          3.1362   -0.2517   -0.4356 C.ar      1 <0>         0.0000
      4 C4          1.5602    1.2353   -1.5073 C.ar      1 <0>         0.0000
      5 C5          2.1093   -1.2127   -0.3873 C.ar      1 <0>         0.0000
      6 C6          4.5152   -0.5360    0.1097 C.3       1 <0>         0.0000
      7 C7          1.5894    6.9008   -3.6487 C.3       1 <0>         0.0000
      8 C8          4.5686    5.6499   -3.6272 C.3       1 <0>         0.0000
      9 C9          2.3347   -2.5807    0.2074 C.3       1 <0>         0.0000
     10 C10         1.3930    4.5941   -2.9448 C.3       1 <0>         0.0000
     11 C11         2.1053    3.4493   -2.2395 C.3       1 <0>         0.0000
     12 N1          0.8734   -0.9737   -0.8600 N.ar      1 <0>         0.0000
     13 N2          2.2898    5.7394   -3.0977 N.3       1 <0>         0.0000
     14 O1          3.3077   -3.2859   -0.5856 O.3       1 <0>         0.0000
     15 O2          1.1465    2.3986   -2.0897 O.3       1 <0>         0.0000
     16 O3          3.2619    5.3415   -4.1033 O.3       1 <0>         0.0000
     17 H1          3.6200    1.7483   -1.0623 H         1 <0>         0.0000
     18 H2         -0.4038    0.3844   -1.7741 H         1 <0>         0.0000
     19 H3          4.4684   -0.8572    1.1566 H         1 <0>         0.0000
     20 H4          4.9939   -1.3438   -0.4495 H         1 <0>         0.0000
     21 H5          5.1489    0.3539    0.0601 H         1 <0>         0.0000
     22 H6          2.3091    7.7075   -3.8075 H         1 <0>         0.0000
     23 H7          0.8491    7.2380   -2.9168 H         1 <0>         0.0000
     24 H8          1.0861    6.6766   -4.6014 H         1 <0>         0.0000
     25 H9          5.2531    5.3412   -4.4223 H         1 <0>         0.0000
     26 H10         4.7971    5.1019   -2.7048 H         1 <0>         0.0000
     27 H11         4.6857    6.7252   -3.4418 H         1 <0>         0.0000
     28 H12         2.6929   -2.4904    1.2448 H         1 <0>         0.0000
     29 H13         1.3733   -3.1054    0.2126 H         1 <0>         0.0000
     30 H14         1.0033    4.2499   -3.9149 H         1 <0>         0.0000
     31 H15         0.5456    4.9198   -2.3334 H         1 <0>         0.0000
     32 H16         2.4691    3.7789   -1.2581 H         1 <0>         0.0000
     33 H17         2.9552    3.1036   -2.8384 H         1 <0>         0.0000
     34 H18         3.4440   -4.1565   -0.1805 H         1 <0>         0.0000
@<TRIPOS>BOND
     1    1    3 ar
     2    1    4 ar
     3    1   17 1
     4    2    4 ar
     5    2   12 ar
     6    2   18 1
     7    3    5 ar
     8    3    6 1
     9    4   15 1
    10    5    9 1
    11    5   12 ar
    12    6   19 1
    13    6   20 1
    14    6   21 1
    15    7   13 1
    16    7   22 1
    17    7   23 1
    18    7   24 1
    19    8   16 1
    20    8   25 1
    21    8   26 1
    22    8   27 1
    23    9   14 1
    24    9   28 1
    25    9   29 1
    26   10   11 1
    27   10   13 1
    28   10   30 1
    29   10   31 1
    30   11   15 1
    31   11   32 1
    32   11   33 1
    33   13   16 1
    34   14   34 1
