@<TRIPOS>MOLECULE
*****
   26    26     0     0     0
SMALL
NO_CHARGES

@<TRIPOS>ATOM
      1 C1          1.8253   -0.7517   -0.2685 C.ar      1 <0>         0.0000
      2 C2          0.8943    0.0079    0.4446 C.ar      1 <0>         0.0000
      3 C3          2.7628   -1.5259    0.4148 C.ar      1 <0>         0.0000
      4 C4          0.9007   -0.0269    1.8383 C.ar      1 <0>         0.0000
      5 C5          2.7988   -1.5697    1.8173 C.ar      1 <0>         0.0000
      6 C6          1.8348   -0.8161    2.5149 C.ar      1 <0>         0.0000
      7 C7          4.1096   -4.4150    4.4987 C.3       1 <0>         0.0000
      8 C8          3.8572   -2.4151    2.4661 C.3       1 <0>         0.0000
      9 N1          0.3051   -1.7368    4.5035 N.pl3     1 <0>         0.0000
     10 O1          2.8717   -1.4038    4.9162 O.2       1 <0>         0.0000
     11 O2          1.2885    0.5615    4.7443 O.2       1 <0>         0.0000
     12 O3          1.7716   -3.9303    3.3384 O.2       1 <0>         0.0000
     13 O4          3.5884   -5.0444    1.9518 O.2       1 <0>         0.0000
     14 S1          1.6758   -0.7844    4.3158 S.o2      1 <0>         0.0000
     15 S2          3.1998   -4.0666    2.9810 S.o2      1 <0>         0.0000
     16 H1          1.8254   -0.7399   -1.3548 H         1 <0>         0.0000
     17 H2          0.1653    0.6206   -0.0777 H         1 <0>         0.0000
     18 H3          3.4867   -2.1129   -0.1437 H         1 <0>         0.0000
     19 H4          0.1837    0.5532    2.4098 H         1 <0>         0.0000
     20 H5          3.7802   -5.4027    4.8270 H         1 <0>         0.0000
     21 H6          5.1774   -4.4286    4.2728 H         1 <0>         0.0000
     22 H7          3.8558   -3.6460    5.2287 H         1 <0>         0.0000
     23 H8          4.2651   -1.9542    3.3630 H         1 <0>         0.0000
     24 H9          4.6535   -2.6553    1.7606 H         1 <0>         0.0000
     25 H10         0.5429   -2.7190    4.3345 H         1 <0>         0.0000
     26 H11        -0.0821   -1.5795    5.4346 H         1 <0>         0.0000
@<TRIPOS>BOND
     1    1    2 ar
     2    1    3 ar
     3    1   16 1
     4    2    4 ar
     5    2   17 1
     6    3    5 ar
     7    3   18 1
     8    4    6 ar
     9    4   19 1
    10    5    6 ar
    11    5    8 1
    12    6   14 1
    13    7   15 1
    14    7   20 1
    15    7   21 1
    16    7   22 1
    17    8   15 1
    18    8   23 1
    19    8   24 1
    20    9   14 1
    21    9   25 1
    22    9   26 1
    23   10   14 2
    24   11   14 2
    25   12   15 2
    26   13   15 2
