@<TRIPOS>MOLECULE
*****
   31    32     0     0     0
SMALL
NO_CHARGES

@<TRIPOS>ATOM
      1 C1         -3.4074    2.3030   -1.4060 C.ar      1 <0>         0.0000
      2 C2         -1.4748    3.7762   -1.3528 C.ar      1 <0>         0.0000
      3 C3         -3.8145    2.8805   -2.6077 C.ar      1 <0>         0.0000
      4 C4         -1.8693    4.3498   -2.5652 C.ar      1 <0>         0.0000
      5 C5         -2.2304    2.7412   -0.7995 C.ar      1 <0>         0.0000
      6 C6         -3.0353    3.8907   -3.1805 C.ar      1 <0>         0.0000
      7 C7         -0.9987   -0.3316   -0.5356 C.2       1 <0>         0.0000
      8 C8          2.0754    0.7157    0.0410 C.3       1 <0>         0.0000
      9 C9          2.1382   -0.7268   -0.4793 C.3       1 <0>         0.0000
     10 C10         0.7708    1.4764   -0.2480 C.3       1 <0>         0.0000
     11 C11         1.0640   -1.6607    0.1009 C.3       1 <0>         0.0000
     12 C12        -0.4727    0.7990    0.3497 C.3       1 <0>         0.0000
     13 N1         -0.2673   -1.4891   -0.4825 N.am      1 <0>         0.0000
     14 O1         -1.9795   -0.2247   -1.2632 O.2       1 <0>         0.0000
     15 O2         -2.9702    1.2879    1.3492 O.2       1 <0>         0.0000
     16 S1         -1.7769    2.0563    0.8248 S.o       1 <0>         0.0000
     17 Cl1        -3.5434    4.6133   -4.6983 Cl        1 <0>         0.0000
     18 H1         -3.9806    1.5121   -0.9342 H         1 <0>         0.0000
     19 H2         -0.5871    4.1503   -0.8495 H         1 <0>         0.0000
     20 H3         -4.7226    2.5482   -3.1007 H         1 <0>         0.0000
     21 H4         -1.2912    5.1508   -3.0148 H         1 <0>         0.0000
     22 H5          2.2395    0.7059    1.1269 H         1 <0>         0.0000
     23 H6          2.9078    1.2839   -0.3899 H         1 <0>         0.0000
     24 H7          2.0629   -0.7416   -1.5735 H         1 <0>         0.0000
     25 H8          3.1215   -1.1396   -0.2233 H         1 <0>         0.0000
     26 H9          0.8704    2.4801    0.1831 H         1 <0>         0.0000
     27 H10         0.6267    1.6090   -1.3252 H         1 <0>         0.0000
     28 H11         1.3453   -2.7005   -0.0829 H         1 <0>         0.0000
     29 H12         1.0126   -1.5453    1.1909 H         1 <0>         0.0000
     30 H13        -0.2297    0.3962    1.3401 H         1 <0>         0.0000
     31 H14        -0.5832   -2.1833   -1.1510 H         1 <0>         0.0000
@<TRIPOS>BOND
     1    1    3 ar
     2    1    5 ar
     3    1   18 1
     4    2    4 ar
     5    2    5 ar
     6    2   19 1
     7    3    6 ar
     8    3   20 1
     9    4    6 ar
    10    4   21 1
    11    5   16 1
    12    6   17 1
    13    7   12 1
    14    7   13 am
    15    7   14 2
    16    8    9 1
    17    8   10 1
    18    8   22 1
    19    8   23 1
    20    9   11 1
    21    9   24 1
    22    9   25 1
    23   10   12 1
    24   10   26 1
    25   10   27 1
    26   11   13 1
    27   11   28 1
    28   11   29 1
    29   12   16 1
    30   12   30 1
    31   13   31 1
    32   15   16 2
