@<TRIPOS>MOLECULE
*****
   35    37     0     0     0
SMALL
NO_CHARGES

@<TRIPOS>ATOM
      1 C1         -3.2552   -2.9353   -1.2037 C.ar      1 <0>         0.0000
      2 C2          0.2586    2.0648   -0.5606 C.ar      1 <0>         0.0000
      3 C3         -4.2541   -3.5708   -1.9426 C.ar      1 <0>         0.0000
      4 C4          1.2835    2.7138    0.1218 C.ar      1 <0>         0.0000
      5 C5         -3.6329   -0.8797   -2.4019 C.ar      1 <0>         0.0000
      6 C6          2.0058    0.5708    0.9937 C.ar      1 <0>         0.0000
      7 C7         -2.9124   -1.5869   -1.4190 C.ar      1 <0>         0.0000
      8 C8          0.0628    0.6756   -0.4619 C.ar      1 <0>         0.0000
      9 C9          0.9755   -0.0841    0.3096 C.ar      1 <0>         0.0000
     10 C10         2.1562    1.9601    0.9149 C.ar      1 <0>         0.0000
     11 C11        -4.9580   -2.8668   -2.9217 C.ar      1 <0>         0.0000
     12 C12        -4.6212   -1.5242   -3.1219 C.ar      1 <0>         0.0000
     13 C13        -1.0561    0.0341   -1.1714 C.2       1 <0>         0.0000
     14 C14        -1.8263   -0.9465   -0.6434 C.2       1 <0>         0.0000
     15 C15         0.8939   -1.5956    0.3102 C.3       1 <0>         0.0000
     16 C16        -1.6077   -1.3705    0.7996 C.3       1 <0>         0.0000
     17 C17        -0.3218   -2.1782    1.0568 C.3       1 <0>         0.0000
     18 O1          3.1544    2.6337    1.5787 O.3       1 <0>         0.0000
     19 O2         -5.9445   -3.4823   -3.6416 O.3       1 <0>         0.0000
     20 F1         -5.3382   -0.8416   -4.0700 F         1 <0>         0.0000
     21 H1         -2.7164   -3.5125   -0.4586 H         1 <0>         0.0000
     22 H2         -0.4226    2.6506   -1.1738 H         1 <0>         0.0000
     23 H3         -4.5007   -4.6150   -1.7746 H         1 <0>         0.0000
     24 H4          1.4219    3.7885    0.0528 H         1 <0>         0.0000
     25 H5         -3.4521    0.1735   -2.5903 H         1 <0>         0.0000
     26 H6          2.7140   -0.0158    1.5793 H         1 <0>         0.0000
     27 H7         -1.2554    0.3857   -2.1827 H         1 <0>         0.0000
     28 H8          0.8396   -1.9247   -0.7338 H         1 <0>         0.0000
     29 H9          1.8142   -2.0179    0.7267 H         1 <0>         0.0000
     30 H10        -1.5470   -0.4536    1.3969 H         1 <0>         0.0000
     31 H11        -2.4738   -1.9237    1.1723 H         1 <0>         0.0000
     32 H12        -0.4496   -3.2230    0.7474 H         1 <0>         0.0000
     33 H13        -0.1346   -2.1884    2.1375 H         1 <0>         0.0000
     34 H14         3.6863    1.9958    2.0801 H         1 <0>         0.0000
     35 H15        -6.3183   -2.8355   -4.2641 H         1 <0>         0.0000
@<TRIPOS>BOND
     1    1    3 ar
     2    1    7 ar
     3    1   21 1
     4    2    4 ar
     5    2    8 ar
     6    2   22 1
     7    3   11 ar
     8    3   23 1
     9    4   10 ar
    10    4   24 1
    11    5    7 ar
    12    5   12 ar
    13    5   25 1
    14    6    9 ar
    15    6   10 ar
    16    6   26 1
    17    7   14 1
    18    8    9 ar
    19    8   13 1
    20    9   15 1
    21   10   18 1
    22   11   12 ar
    23   11   19 1
    24   12   20 1
    25   13   14 2
    26   13   27 1
    27   14   16 1
    28   15   17 1
    29   15   28 1
    30   15   29 1
    31   16   17 1
    32   16   30 1
    33   16   31 1
    34   17   32 1
    35   17   33 1
    36   18   34 1
    37   19   35 1
