@<TRIPOS>MOLECULE
*****
   20    20     0     0     0
SMALL
NO_CHARGES

@<TRIPOS>ATOM
      1 C1         -2.0432    2.8426    1.8704 C.2       1 <0>         0.0000
      2 C2         -1.0357    3.7303    2.1656 C.2       1 <0>         0.0000
      3 C3         -0.4321    1.6545    2.5937 C.2       1 <0>         0.0000
      4 C4          0.5182   -0.5668    0.4796 C.3       1 <0>         0.0000
      5 C5          2.5343    0.6351    1.2223 C.3       1 <0>         0.0000
      6 N1         -1.6614    1.5521    2.1394 N.2       1 <0>         0.0000
      7 N2         -0.0103    2.9546    2.6283 N.pl3     1 <0>         0.0000
      8 N3          1.3576   -0.1698    1.6385 N.pl3     1 <0>         0.0000
      9 O1          1.5301    0.7684    4.0543 O.2       1 <0>         0.0000
     10 O2         -0.3548   -0.7856    3.4922 O.2       1 <0>         0.0000
     11 S1          0.5556    0.2741    3.0992 S.o2      1 <0>         0.0000
     12 H1         -3.0241    3.0686    1.4779 H         1 <0>         0.0000
     13 H2         -0.9559    4.8052    2.0919 H         1 <0>         0.0000
     14 H3         -0.3388   -1.1591    0.8328 H         1 <0>         0.0000
     15 H4          0.1536    0.3345   -0.0348 H         1 <0>         0.0000
     16 H5          1.1180   -1.1698   -0.2180 H         1 <0>         0.0000
     17 H6          3.1258    0.9064    2.1091 H         1 <0>         0.0000
     18 H7          3.1564    0.0454    0.5330 H         1 <0>         0.0000
     19 H8          2.1921    1.5498    0.7161 H         1 <0>         0.0000
     20 H9          0.8942    3.2828    2.9396 H         1 <0>         0.0000
@<TRIPOS>BOND
     1    1    2 2
     2    1    6 1
     3    1   12 1
     4    2    7 1
     5    2   13 1
     6    3    6 2
     7    3    7 1
     8    3   11 1
     9    4    8 1
    10    4   14 1
    11    4   15 1
    12    4   16 1
    13    5    8 1
    14    5   17 1
    15    5   18 1
    16    5   19 1
    17    7   20 1
    18    8   11 1
    19    9   11 2
    20   10   11 2
