@<TRIPOS>MOLECULE
*****
   35    36     0     0     0
SMALL
NO_CHARGES

@<TRIPOS>ATOM
      1 C1          3.3286    1.4480   -4.4886 C.ar      1 <0>         0.0000
      2 C2          1.1915    1.0116   -6.0519 C.ar      1 <0>         0.0000
      3 C3          2.2653    0.6438   -4.0660 C.ar      1 <0>         0.0000
      4 C4          2.2714    1.8157   -6.4554 C.ar      1 <0>         0.0000
      5 C5          2.3100    0.0015   -2.6998 C.2       1 <0>         0.0000
      6 C6          2.0721   -2.5720   -0.9240 C.3       1 <0>         0.0000
      7 C7          0.9407   -0.5566    0.0624 C.3       1 <0>         0.0000
      8 C8          1.7898   -3.3163    0.3823 C.3       1 <0>         0.0000
      9 C9          0.7005   -1.3763    1.3308 C.3       1 <0>         0.0000
     10 C10         1.0139   -1.4849   -1.1577 C.3       1 <0>         0.0000
     11 C11         1.6236   -3.0704    2.7970 C.3       1 <0>         0.0000
     12 C12         2.3333   -2.2983    3.8978 C.3       1 <0>         0.0000
     13 N1          1.1984    0.4302   -4.8551 N.ar      1 <0>         0.0000
     14 N2          3.3282    2.0366   -5.6931 N.ar      1 <0>         0.0000
     15 N3          1.7442   -2.3883    1.5152 N.3       1 <0>         0.0000
     16 N4          1.2221   -0.7538   -2.4112 N.am      1 <0>         0.0000
     17 O1          3.2763    0.1836   -1.9547 O.2       1 <0>         0.0000
     18 F1          3.6944   -2.4136    3.7607 F         1 <0>         0.0000
     19 F2          2.0001   -2.8399    5.1235 F         1 <0>         0.0000
     20 Cl1         2.2273    2.5632   -8.0354 Cl        1 <0>         0.0000
     21 H1          4.1840    1.6119   -3.8408 H         1 <0>         0.0000
     22 H2          0.3353    0.8478   -6.7007 H         1 <0>         0.0000
     23 H3          3.0589   -2.1065   -0.8730 H         1 <0>         0.0000
     24 H4          2.0695   -3.2809   -1.7594 H         1 <0>         0.0000
     25 H5          0.1294    0.1682   -0.0675 H         1 <0>         0.0000
     26 H6          1.8802   -0.0065    0.1518 H         1 <0>         0.0000
     27 H7          0.8416   -3.8845    0.2898 H         1 <0>         0.0000
     28 H8          2.5864   -4.0438    0.5644 H         1 <0>         0.0000
     29 H9          0.6934   -0.7067    2.1967 H         1 <0>         0.0000
     30 H10        -0.3019   -1.8505    1.2875 H         1 <0>         0.0000
     31 H11         0.0395   -1.9767   -1.2696 H         1 <0>         0.0000
     32 H12         2.1016   -4.0527    2.7447 H         1 <0>         0.0000
     33 H13         0.5759   -3.2299    3.1044 H         1 <0>         0.0000
     34 H14         2.0964   -1.2317    3.9303 H         1 <0>         0.0000
     35 H15         0.5154   -0.7983   -3.1366 H         1 <0>         0.0000
@<TRIPOS>BOND
     1    1    3 ar
     2    1   14 ar
     3    1   21 1
     4    2    4 ar
     5    2   13 ar
     6    2   22 1
     7    3    5 1
     8    3   13 ar
     9    4   14 ar
    10    4   20 1
    11    5   16 am
    12    5   17 2
    13    6    8 1
    14    6   10 1
    15    6   23 1
    16    6   24 1
    17    7    9 1
    18    7   10 1
    19    7   25 1
    20    7   26 1
    21    8   15 1
    22    8   27 1
    23    8   28 1
    24    9   15 1
    25    9   29 1
    26    9   30 1
    27   10   16 1
    28   10   31 1
    29   11   12 1
    30   11   15 1
    31   11   32 1
    32   11   33 1
    33   12   18 1
    34   12   19 1
    35   12   34 1
    36   16   35 1
