@<TRIPOS>MOLECULE
*****
   55    56     0     0     0
SMALL
NO_CHARGES

@<TRIPOS>ATOM
      1 C1         -1.0506    2.7289   -0.9543 C.ar      1 <0>         0.0000
      2 C2         -0.1127    3.0347    0.0490 C.ar      1 <0>         0.0000
      3 C3         -1.2271    1.4078   -1.3410 C.ar      1 <0>         0.0000
      4 C4          0.6283    2.0315    0.6670 C.ar      1 <0>         0.0000
      5 C5         -0.4760    0.3796   -0.7402 C.ar      1 <0>         0.0000
      6 C6          0.4426    0.6985    0.2775 C.ar      1 <0>         0.0000
      7 C7         -0.6054   -1.0116   -1.1999 C.2       1 <0>         0.0000
      8 C8          0.4841   -1.9840   -0.6841 C.3       1 <0>         0.0000
      9 C9          0.7342   -1.6348    0.8257 C.3       1 <0>         0.0000
     10 C10        -0.5535   -1.7721    1.6619 C.3       1 <0>         0.0000
     11 C11         3.4261   -2.8448    3.4253 C.3       1 <0>         0.0000
     12 C12         4.0629   -2.9520   -3.6460 C.3       1 <0>         0.0000
     13 C13        -0.9244   -6.6019   -1.0504 C.3       1 <0>         0.0000
     14 C14         1.7494   -1.6901   -1.5407 C.3       1 <0>         0.0000
     15 C15        -0.0250   -3.4327   -0.8767 C.3       1 <0>         0.0000
     16 C16         1.8696   -2.4448    1.4683 C.3       1 <0>         0.0000
     17 C17         2.2169   -2.0543    2.9128 C.3       1 <0>         0.0000
     18 C18         1.5069   -1.8081   -3.0448 C.3       1 <0>         0.0000
     19 C19         1.0458   -4.5252   -0.9985 C.3       1 <0>         0.0000
     20 O1         -1.4621   -1.3659   -2.0045 O.2       1 <0>         0.0000
     21 O2          2.6536   -1.5890   -5.4338 O.2       1 <0>         0.0000
     22 O3          3.6913   -0.3241   -3.4643 O.2       1 <0>         0.0000
     23 O4          1.6204   -7.0579   -0.4097 O.2       1 <0>         0.0000
     24 O5          0.1656   -5.7164    1.2113 O.2       1 <0>         0.0000
     25 O6          1.1898   -0.2471    0.9032 O.3       1 <0>         0.0000
     26 S1          3.0205   -1.5161   -4.0105 S.o2      1 <0>         0.0000
     27 S2          0.5593   -6.0676   -0.1673 S.o2      1 <0>         0.0000
     28 H1         -1.6242    3.5216   -1.4251 H         1 <0>         0.0000
     29 H2          0.0342    4.0676    0.3540 H         1 <0>         0.0000
     30 H3         -1.9315    1.1345   -2.1209 H         1 <0>         0.0000
     31 H4          1.3460    2.2543    1.4507 H         1 <0>         0.0000
     32 H5         -0.4389   -1.2082    2.5891 H         1 <0>         0.0000
     33 H6         -0.7316   -2.8174    1.9245 H         1 <0>         0.0000
     34 H7         -1.4395   -1.3916    1.1482 H         1 <0>         0.0000
     35 H8          3.2367   -3.9237    3.3934 H         1 <0>         0.0000
     36 H9          3.6621   -2.5774    4.4605 H         1 <0>         0.0000
     37 H10         4.3170   -2.6437    2.8189 H         1 <0>         0.0000
     38 H11         4.9510   -2.8316   -4.2693 H         1 <0>         0.0000
     39 H12         4.3439   -2.9513   -2.5925 H         1 <0>         0.0000
     40 H13         3.5321   -3.8641   -3.9238 H         1 <0>         0.0000
     41 H14        -1.2505   -7.5197   -0.5576 H         1 <0>         0.0000
     42 H15        -1.6941   -5.8337   -0.9682 H         1 <0>         0.0000
     43 H16        -0.6642   -6.8017   -2.0910 H         1 <0>         0.0000
     44 H17         2.5414   -2.3797   -1.2430 H         1 <0>         0.0000
     45 H18         2.1247   -0.6887   -1.3262 H         1 <0>         0.0000
     46 H19        -0.6546   -3.4456   -1.7678 H         1 <0>         0.0000
     47 H20        -0.6846   -3.6693   -0.0404 H         1 <0>         0.0000
     48 H21         1.5833   -3.5000    1.4609 H         1 <0>         0.0000
     49 H22         2.7750   -2.3369    0.8616 H         1 <0>         0.0000
     50 H23         2.4228   -0.9809    2.9631 H         1 <0>         0.0000
     51 H24         1.3609   -2.2469    3.5677 H         1 <0>         0.0000
     52 H25         1.1241   -2.7808   -3.3621 H         1 <0>         0.0000
     53 H26         0.8196   -1.0458   -3.4206 H         1 <0>         0.0000
     54 H27         1.2799   -4.7963   -2.0314 H         1 <0>         0.0000
     55 H28         1.9859   -4.2944   -0.4964 H         1 <0>         0.0000
@<TRIPOS>BOND
     1    1    2 ar
     2    1    3 ar
     3    1   28 1
     4    2    4 ar
     5    2   29 1
     6    3    5 ar
     7    3   30 1
     8    4    6 ar
     9    4   31 1
    10    5    6 ar
    11    5    7 1
    12    6   25 1
    13    7    8 1
    14    7   20 2
    15    8    9 1
    16    8   14 1
    17    8   15 1
    18    9   10 1
    19    9   16 1
    20    9   25 1
    21   10   32 1
    22   10   33 1
    23   10   34 1
    24   11   17 1
    25   11   35 1
    26   11   36 1
    27   11   37 1
    28   12   26 1
    29   12   38 1
    30   12   39 1
    31   12   40 1
    32   13   27 1
    33   13   41 1
    34   13   42 1
    35   13   43 1
    36   14   18 1
    37   14   44 1
    38   14   45 1
    39   15   19 1
    40   15   46 1
    41   15   47 1
    42   16   17 1
    43   16   48 1
    44   16   49 1
    45   17   50 1
    46   17   51 1
    47   18   26 1
    48   18   52 1
    49   18   53 1
    50   19   27 1
    51   19   54 1
    52   19   55 1
    53   21   26 2
    54   22   26 2
    55   23   27 2
    56   24   27 2
