@<TRIPOS>MOLECULE
*****
   41    42     0     0     0
SMALL
NO_CHARGES

@<TRIPOS>ATOM
      1 C1          0.7013    1.7204    0.1623 C.1       1 <0>         0.0000
      2 C2         -4.6769   -1.4429   -0.1218 C.ar      1 <0>         0.0000
      3 C3         -4.3527    0.5405   -1.4556 C.ar      1 <0>         0.0000
      4 C4         -5.9857   -1.0462    0.1731 C.ar      1 <0>         0.0000
      5 C5         -5.6557    0.9560   -1.1737 C.ar      1 <0>         0.0000
      6 C6         -0.4310    2.4294   -3.5071 C.2       1 <0>         0.0000
      7 C7          1.4126    1.5230   -3.0745 C.2       1 <0>         0.0000
      8 C8         -3.8475   -0.6617   -0.9361 C.ar      1 <0>         0.0000
      9 C9         -6.4490    0.1508   -0.3610 C.ar      1 <0>         0.0000
     10 C10         0.5622    0.0754    1.9566 C.3       1 <0>         0.0000
     11 C11         2.4405   -0.0107    0.2931 C.3       1 <0>         0.0000
     12 C12        -2.4161   -1.0588   -1.2217 C.3       1 <0>         0.0000
     13 C13        -1.4474   -0.2791   -0.3109 C.3       1 <0>         0.0000
     14 C14         0.5069   -0.5640   -1.9550 C.3       1 <0>         0.0000
     15 C15         0.9333    0.2942    0.4681 C.3       1 <0>         0.0000
     16 C16         0.0468   -0.6115   -0.4735 C.3       1 <0>         0.0000
     17 N1          0.5310    2.8559   -0.0223 N.1       1 <0>         0.0000
     18 N2          0.9150    2.6097   -3.6431 N.2       1 <0>         0.0000
     19 N3         -0.7880    1.3019   -2.9025 N.2       1 <0>         0.0000
     20 N4          0.4162    0.7246   -2.6188 N.pl3     1 <0>         0.0000
     21 O1          0.3272   -1.9597   -0.0573 O.3       1 <0>         0.0000
     22 F1         -7.7195    0.5465   -0.0829 F         1 <0>         0.0000
     23 H1         -4.3032   -2.3789    0.2884 H         1 <0>         0.0000
     24 H2         -3.7148    1.1549   -2.0863 H         1 <0>         0.0000
     25 H3         -6.6385   -1.6467    0.7994 H         1 <0>         0.0000
     26 H4         -6.0584    1.8824   -1.5719 H         1 <0>         0.0000
     27 H5         -1.1654    3.1404   -3.8625 H         1 <0>         0.0000
     28 H6          2.4615    1.2778   -2.9688 H         1 <0>         0.0000
     29 H7          0.6691   -0.9830    2.2020 H         1 <0>         0.0000
     30 H8         -0.4563    0.3956    2.1800 H         1 <0>         0.0000
     31 H9          1.2374    0.6573    2.5888 H         1 <0>         0.0000
     32 H10         2.6130   -1.0806    0.4299 H         1 <0>         0.0000
     33 H11         2.8165    0.2891   -0.6866 H         1 <0>         0.0000
     34 H12         3.0163    0.5369    1.0429 H         1 <0>         0.0000
     35 H13        -2.1899   -0.8426   -2.2678 H         1 <0>         0.0000
     36 H14        -2.3120   -2.1433   -1.0794 H         1 <0>         0.0000
     37 H15        -1.7287   -0.4672    0.7289 H         1 <0>         0.0000
     38 H16        -1.5955    0.7863   -0.4958 H         1 <0>         0.0000
     39 H17        -0.0855   -1.2869   -2.5188 H         1 <0>         0.0000
     40 H18         1.5436   -0.8937   -2.0123 H         1 <0>         0.0000
     41 H19        -0.4770   -2.4886   -0.1705 H         1 <0>         0.0000
@<TRIPOS>BOND
     1    1   15 1
     2    1   17 3
     3    2    4 ar
     4    2    8 ar
     5    2   23 1
     6    3    5 ar
     7    3    8 ar
     8    3   24 1
     9    4    9 ar
    10    4   25 1
    11    5    9 ar
    12    5   26 1
    13    6   18 1
    14    6   19 2
    15    6   27 1
    16    7   18 2
    17    7   20 1
    18    7   28 1
    19    8   12 1
    20    9   22 1
    21   10   15 1
    22   10   29 1
    23   10   30 1
    24   10   31 1
    25   11   15 1
    26   11   32 1
    27   11   33 1
    28   11   34 1
    29   12   13 1
    30   12   35 1
    31   12   36 1
    32   13   16 1
    33   13   37 1
    34   13   38 1
    35   14   16 1
    36   14   20 1
    37   14   39 1
    38   14   40 1
    39   15   16 1
    40   16   21 1
    41   19   20 1
    42   21   41 1
