@<TRIPOS>MOLECULE
*****
   15    15     0     0     0
SMALL
NO_CHARGES

@<TRIPOS>ATOM
      1 C1          3.2135   -0.3783   -0.0376 C.2       1 <0>         0.0000
      2 C2          1.9563   -0.8247   -0.1778 C.2       1 <0>         0.0000
      3 C3          3.9626   -1.5440    0.5108 C.2       1 <0>         0.0000
      4 C4          0.8000   -0.0847   -0.7425 C.3       1 <0>         0.0000
      5 N1          1.8353   -2.1189    0.2480 N.pl3     1 <0>         0.0000
      6 N2          3.0500   -2.5800    0.6388 N.am      1 <0>         0.0000
      7 N3          0.3197   -0.8170   -1.8837 N.3       1 <0>         0.0000
      8 O1          5.1527   -1.5388    0.7741 O.2       1 <0>         0.0000
      9 H1          3.6322    0.5806   -0.2852 H         1 <0>         0.0000
     10 H2          1.1219    0.9164   -1.0424 H         1 <0>         0.0000
     11 H3          0.0154   -0.0054    0.0150 H         1 <0>         0.0000
     12 H4          0.9685   -2.5221    0.5738 H         1 <0>         0.0000
     13 H5          3.2539   -3.5148    0.9660 H         1 <0>         0.0000
     14 H6          0.9819   -1.2888   -2.4785 H         1 <0>         0.0000
     15 H7         -0.6313   -0.6830   -2.1882 H         1 <0>         0.0000
@<TRIPOS>BOND
     1    1    2 2
     2    1    3 1
     3    1    9 1
     4    2    4 1
     5    2    5 1
     6    3    6 am
     7    3    8 2
     8    4    7 1
     9    4   10 1
    10    4   11 1
    11    5    6 1
    12    5   12 1
    13    6   13 1
    14    7   14 1
    15    7   15 1
