@<TRIPOS>MOLECULE
*****
   36    38     0     0     0
SMALL
NO_CHARGES

@<TRIPOS>ATOM
      1 C1         -4.7924   -2.2950   -1.8695 C.ar      1 <0>         0.0000
      2 C2         -5.6295   -2.2668   -0.7523 C.ar      1 <0>         0.0000
      3 C3         -3.7132   -1.4131   -1.9575 C.ar      1 <0>         0.0000
      4 C4         -4.3194   -0.4430    0.1607 C.ar      1 <0>         0.0000
      5 C5         -5.3923   -1.3342    0.2691 C.ar      1 <0>         0.0000
      6 C6         -3.4557   -0.4843   -0.9378 C.ar      1 <0>         0.0000
      7 C7          1.0970   -1.1055   -1.1724 C.2       1 <0>         0.0000
      8 C8         -1.2014   -0.3079    1.1457 C.2       1 <0>         0.0000
      9 C9          1.9345   -1.7977   -1.9493 C.2       1 <0>         0.0000
     10 C10        -6.2793   -1.2183    1.4723 C.2       1 <0>         0.0000
     11 C11         1.4551    0.1110   -0.3452 C.3       1 <0>         0.0000
     12 C12        -0.3967   -1.3622   -1.0326 C.3       1 <0>         0.0000
     13 C13        -0.0947    1.7187    0.9616 C.3       1 <0>         0.0000
     14 C14         0.1652    0.9559   -0.3390 C.3       1 <0>         0.0000
     15 C15        -0.9682   -0.0961   -0.3564 C.3       1 <0>         0.0000
     16 C16        -2.2668    0.4463   -1.0132 C.3       1 <0>         0.0000
     17 O1         -1.7196   -1.2547    1.6872 O.2       1 <0>         0.0000
     18 O2         -6.4621   -0.1836    2.0741 O.2       1 <0>         0.0000
     19 O3         -0.7336    0.7662    1.8482 O.3       1 <0>         0.0000
     20 O4         -6.9041   -2.3643    1.8771 O.3       1 <0>         0.0000
     21 H1         -4.9889   -2.9950   -2.6768 H         1 <0>         0.0000
     22 H2         -6.4886   -2.9329   -0.7143 H         1 <0>         0.0000
     23 H3         -3.0735   -1.4388   -2.8365 H         1 <0>         0.0000
     24 H4         -4.1666    0.2766    0.9595 H         1 <0>         0.0000
     25 H5          1.5971   -2.6542   -2.5290 H         1 <0>         0.0000
     26 H6          2.9879   -1.5378   -2.0236 H         1 <0>         0.0000
     27 H7          1.6902   -0.2004    0.6823 H         1 <0>         0.0000
     28 H8          2.3237    0.6523   -0.7293 H         1 <0>         0.0000
     29 H9         -0.8506   -1.5273   -2.0133 H         1 <0>         0.0000
     30 H10        -0.6144   -2.2486   -0.4293 H         1 <0>         0.0000
     31 H11         0.8147    2.0642    1.4585 H         1 <0>         0.0000
     32 H12        -0.7717    2.5682    0.8262 H         1 <0>         0.0000
     33 H13         0.1290    1.6164   -1.2105 H         1 <0>         0.0000
     34 H14        -2.0254    0.6580   -2.0606 H         1 <0>         0.0000
     35 H15        -2.5275    1.4041   -0.5491 H         1 <0>         0.0000
     36 H16        -6.5217   -3.1276    1.4124 H         1 <0>         0.0000
@<TRIPOS>BOND
     1    1    2 ar
     2    1    3 ar
     3    1   21 1
     4    2    5 ar
     5    2   22 1
     6    3    6 ar
     7    3   23 1
     8    4    5 ar
     9    4    6 ar
    10    4   24 1
    11    5   10 1
    12    6   16 1
    13    7    9 2
    14    7   11 1
    15    7   12 1
    16    8   15 1
    17    8   17 2
    18    8   19 1
    19    9   25 1
    20    9   26 1
    21   10   18 2
    22   10   20 1
    23   11   14 1
    24   11   27 1
    25   11   28 1
    26   12   15 1
    27   12   29 1
    28   12   30 1
    29   13   14 1
    30   13   19 1
    31   13   31 1
    32   13   32 1
    33   14   15 1
    34   14   33 1
    35   15   16 1
    36   16   34 1
    37   16   35 1
    38   20   36 1
