@<TRIPOS>MOLECULE
*****
   42    42     0     0     0
SMALL
NO_CHARGES

@<TRIPOS>ATOM
      1 C1          0.5684   -2.2206    3.1556 C.1       1 <0>         0.0000
      2 C2          3.7481    3.1072    0.8580 C.ar      1 <0>         0.0000
      3 C3          2.5335    3.3297    0.2054 C.ar      1 <0>         0.0000
      4 C4          3.8026    2.2386    1.9476 C.ar      1 <0>         0.0000
      5 C5          1.3640    2.6948    0.6389 C.ar      1 <0>         0.0000
      6 C6          2.6511    1.5897    2.4199 C.ar      1 <0>         0.0000
      7 C7          1.4309    1.8455    1.7647 C.ar      1 <0>         0.0000
      8 C8          1.2244   -3.3557    3.2340 C.2       1 <0>         0.0000
      9 C9         -0.0732   -1.0803    3.0751 C.2       1 <0>         0.0000
     10 C10        -0.7658    1.9027    2.8789 C.2       1 <0>         0.0000
     11 C11         0.0593    2.9309   -0.0870 C.3       1 <0>         0.0000
     12 C12         2.7531    0.6405    3.5886 C.3       1 <0>         0.0000
     13 C13         0.7722   -0.6996    0.6968 C.3       1 <0>         0.0000
     14 C14         1.8306    4.2122    4.7452 C.3       1 <0>         0.0000
     15 C15        -0.4872    3.3397    3.3065 C.3       1 <0>         0.0000
     16 C16        -0.1022   -0.1934    1.8390 C.3       1 <0>         0.0000
     17 N1          0.2200    1.2175    2.2157 N.am      1 <0>         0.0000
     18 O1         -1.8532    1.3992    3.1526 O.2       1 <0>         0.0000
     19 O2         -0.6020    4.3558    5.7883 O.2       1 <0>         0.0000
     20 O3          0.4698    2.0535    5.4890 O.2       1 <0>         0.0000
     21 S1          0.2245    3.4226    5.0093 S.o2      1 <0>         0.0000
     22 H1          4.6510    3.6030    0.5111 H         1 <0>         0.0000
     23 H2          2.4929    3.9923   -0.6556 H         1 <0>         0.0000
     24 H3          4.7507    2.0579    2.4484 H         1 <0>         0.0000
     25 H4          2.2507   -3.3892    3.5974 H         1 <0>         0.0000
     26 H5          0.7627   -4.3011    2.9536 H         1 <0>         0.0000
     27 H6         -0.6532   -0.7231    3.9240 H         1 <0>         0.0000
     28 H7         -0.5031    2.0037   -0.2233 H         1 <0>         0.0000
     29 H8         -0.5979    3.6168    0.4606 H         1 <0>         0.0000
     30 H9          0.2406    3.3709   -1.0706 H         1 <0>         0.0000
     31 H10         1.8833    0.6997    4.2429 H         1 <0>         0.0000
     32 H11         2.8296   -0.3940    3.2385 H         1 <0>         0.0000
     33 H12         3.6484    0.8572    4.1784 H         1 <0>         0.0000
     34 H13         1.8235   -0.7778    0.9823 H         1 <0>         0.0000
     35 H14         0.4299   -1.6964    0.4090 H         1 <0>         0.0000
     36 H15         0.7002   -0.0474   -0.1767 H         1 <0>         0.0000
     37 H16         2.3130    4.2315    5.7244 H         1 <0>         0.0000
     38 H17         2.4152    3.6242    4.0378 H         1 <0>         0.0000
     39 H18         1.6664    5.2285    4.3834 H         1 <0>         0.0000
     40 H19        -1.4424    3.8583    3.3843 H         1 <0>         0.0000
     41 H20         0.1935    3.8887    2.6572 H         1 <0>         0.0000
     42 H21        -1.1441   -0.1644    1.5030 H         1 <0>         0.0000
@<TRIPOS>BOND
     1    1    8 2
     2    1    9 2
     3    2    4 ar
     4    2    3 ar
     5    2   22 1
     6    3    5 ar
     7    3   23 1
     8    4    6 ar
     9    4   24 1
    10    5    7 ar
    11    5   11 1
    12    6    7 ar
    13    6   12 1
    14    7   17 1
    15    8   25 1
    16    8   26 1
    17    9   16 1
    18    9   27 1
    19   10   15 1
    20   10   17 am
    21   10   18 2
    22   11   28 1
    23   11   29 1
    24   11   30 1
    25   12   31 1
    26   12   32 1
    27   12   33 1
    28   13   16 1
    29   13   34 1
    30   13   35 1
    31   13   36 1
    32   14   21 1
    33   14   37 1
    34   14   38 1
    35   14   39 1
    36   15   21 1
    37   15   40 1
    38   15   41 1
    39   16   17 1
    40   16   42 1
    41   19   21 2
    42   20   21 2
