@<TRIPOS>MOLECULE
*****
   36    38     0     0     0
SMALL
NO_CHARGES

@<TRIPOS>ATOM
      1 C1          1.7572   -1.4538   -1.3002 C.ar      1 <0>         0.0000
      2 C2          1.6497   -2.1625   -2.4967 C.ar      1 <0>         0.0000
      3 C3         -0.2456   -3.3714   -1.5735 C.ar      1 <0>         0.0000
      4 C4          3.1129   -4.0801    2.5140 C.2       1 <0>         0.0000
      5 C5          1.0123   -4.0437    2.6275 C.2       1 <0>         0.0000
      6 C6          0.8878   -1.6622   -0.2188 C.ar      1 <0>         0.0000
      7 C7          0.6429   -3.1146   -2.6098 C.ar      1 <0>         0.0000
      8 C8         -0.1008   -2.6318   -0.4054 C.ar      1 <0>         0.0000
      9 C9          0.8205    1.7141    0.2915 C.3       1 <0>         0.0000
     10 C10         0.5468    1.6884    1.7746 C.3       1 <0>         0.0000
     11 C11         0.1832    0.4880    0.9194 C.3       1 <0>         0.0000
     12 C12        -2.3697   -0.0213    2.0839 C.3       1 <0>         0.0000
     13 C13         0.7184   -1.5275    2.3485 C.3       1 <0>         0.0000
     14 C14         1.0551   -0.7867    1.0325 C.3       1 <0>         0.0000
     15 N1          2.0319   -4.8947    2.6631 N.2       1 <0>         0.0000
     16 N2          2.8217   -2.7877    2.3994 N.2       1 <0>         0.0000
     17 N3          1.4579   -2.7771    2.4767 N.pl3     1 <0>         0.0000
     18 O1          2.4072   -0.3355    1.1224 O.3       1 <0>         0.0000
     19 F1          0.5199   -3.8202   -3.7600 F         1 <0>         0.0000
     20 F2         -0.9914   -2.9151    0.5908 F         1 <0>         0.0000
     21 S1         -1.5562    0.2905    0.4762 S.3       1 <0>         0.0000
     22 H1          2.5414   -0.7154   -1.1813 H         1 <0>         0.0000
     23 H2          2.3301   -1.9898   -3.3243 H         1 <0>         0.0000
     24 H3         -1.0274   -4.1172   -1.6665 H         1 <0>         0.0000
     25 H4          4.1343   -4.4372    2.4904 H         1 <0>         0.0000
     26 H5         -0.0379   -4.2931    2.6967 H         1 <0>         0.0000
     27 H6          0.1849    2.3264   -0.3387 H         1 <0>         0.0000
     28 H7          1.8537    1.6234   -0.0209 H         1 <0>         0.0000
     29 H8          1.4078    1.5817    2.4264 H         1 <0>         0.0000
     30 H9         -0.2674    2.2929    2.1616 H         1 <0>         0.0000
     31 H10        -3.4168    0.2691    1.9663 H         1 <0>         0.0000
     32 H11        -1.9214    0.5970    2.8659 H         1 <0>         0.0000
     33 H12        -2.3341   -1.0745    2.3720 H         1 <0>         0.0000
     34 H13         0.9894   -0.8687    3.1767 H         1 <0>         0.0000
     35 H14        -0.3361   -1.7720    2.4185 H         1 <0>         0.0000
     36 H15         2.9408   -1.0816    1.4744 H         1 <0>         0.0000
@<TRIPOS>BOND
     1    1    2 ar
     2    1    6 ar
     3    1   22 1
     4    2    7 ar
     5    2   23 1
     6    3    7 ar
     7    3    8 ar
     8    3   24 1
     9    4   15 1
    10    4   16 2
    11    4   25 1
    12    5   15 2
    13    5   17 1
    14    5   26 1
    15    6    8 ar
    16    6   14 1
    17    7   19 1
    18    8   20 1
    19    9   10 1
    20    9   11 1
    21    9   27 1
    22    9   28 1
    23   10   11 1
    24   10   29 1
    25   10   30 1
    26   11   14 1
    27   11   21 1
    28   12   21 1
    29   12   31 1
    30   12   32 1
    31   12   33 1
    32   13   14 1
    33   13   17 1
    34   13   34 1
    35   13   35 1
    36   14   18 1
    37   16   17 1
    38   18   36 1
