@<TRIPOS>MOLECULE
*****
   40    43     0     0     0
SMALL
NO_CHARGES

@<TRIPOS>ATOM
      1 C1          2.5594    3.1230   -2.5485 C.ar      1 <0>         0.0000
      2 C2          1.6545    2.0660   -2.4767 C.ar      1 <0>         0.0000
      3 C3          3.1404    0.9079   -0.9561 C.ar      1 <0>         0.0000
      4 C4          5.9568    5.7969   -2.6920 C.2       1 <0>         0.0000
      5 C5          4.8783    5.0187   -3.0354 C.2       1 <0>         0.0000
      6 C6          3.7718    3.0775   -1.8592 C.ar      1 <0>         0.0000
      7 C7          1.9418    0.9402   -1.6867 C.ar      1 <0>         0.0000
      8 C8          4.0521    1.9630   -1.0393 C.ar      1 <0>         0.0000
      9 C9          5.7173    4.3998   -1.0755 C.2       1 <0>         0.0000
     10 C10         0.9831   -1.1372   -0.6925 C.2       1 <0>         0.0000
     11 C11         0.6982   -4.6812   -2.4425 C.2       1 <0>         0.0000
     12 C12         5.8300    3.6212    0.1884 C.3       1 <0>         0.0000
     13 C13        -0.1628   -0.1691   -2.4953 C.3       1 <0>         0.0000
     14 C14        -0.6777   -1.5909   -2.2245 C.3       1 <0>         0.0000
     15 C15         0.3639   -6.0083   -1.7883 C.3       1 <0>         0.0000
     16 C16        -0.2354   -2.5810   -3.3120 C.3       1 <0>         0.0000
     17 N1          6.4741    5.4039   -1.4701 N.2       1 <0>         0.0000
     18 N2          4.7223    4.1163   -1.9881 N.pl3     1 <0>         0.0000
     19 N3          1.0226   -0.1301   -1.6498 N.am      1 <0>         0.0000
     20 N4         -0.3858   -3.9651   -2.9132 N.am      1 <0>         0.0000
     21 O1          1.7190   -1.3177    0.2487 O.2       1 <0>         0.0000
     22 O2          1.8496   -4.2734   -2.5519 O.2       1 <0>         0.0000
     23 O3         -0.0920   -1.9470   -0.9589 O.3       1 <0>         0.0000
     24 S1          5.5839    1.8309   -0.1449 S.3       1 <0>         0.0000
     25 H1          2.3111    3.9960   -3.1438 H         1 <0>         0.0000
     26 H2          0.7237    2.1406   -3.0266 H         1 <0>         0.0000
     27 H3          3.3556    0.0640   -0.3144 H         1 <0>         0.0000
     28 H4          6.3983    6.6073   -3.2572 H         1 <0>         0.0000
     29 H5          4.2570    4.9912   -3.9175 H         1 <0>         0.0000
     30 H6          6.8323    3.7434    0.6005 H         1 <0>         0.0000
     31 H7          5.0974    3.9448    0.9353 H         1 <0>         0.0000
     32 H8          0.0953   -0.0254   -3.5490 H         1 <0>         0.0000
     33 H9         -0.8880    0.6006   -2.2023 H         1 <0>         0.0000
     34 H10        -1.7620   -1.6185   -2.0894 H         1 <0>         0.0000
     35 H11         1.1064   -6.7489   -2.0908 H         1 <0>         0.0000
     36 H12         0.4367   -5.8843   -0.7032 H         1 <0>         0.0000
     37 H13        -0.6376   -6.3739   -2.0337 H         1 <0>         0.0000
     38 H14         0.8243   -2.4357   -3.5336 H         1 <0>         0.0000
     39 H15        -0.8096   -2.3783   -4.2247 H         1 <0>         0.0000
     40 H16        -1.3100   -4.2952   -2.6669 H         1 <0>         0.0000
@<TRIPOS>BOND
     1    1    2 ar
     2    1    6 ar
     3    1   25 1
     4    2    7 ar
     5    2   26 1
     6    3    7 ar
     7    3    8 ar
     8    3   27 1
     9    4    5 2
    10    4   17 1
    11    4   28 1
    12    5   18 1
    13    5   29 1
    14    6    8 ar
    15    6   18 1
    16    7   19 1
    17    8   24 1
    18    9   12 1
    19    9   17 2
    20    9   18 1
    21   10   19 am
    22   10   21 2
    23   10   23 1
    24   11   15 1
    25   11   20 am
    26   11   22 2
    27   12   24 1
    28   12   30 1
    29   12   31 1
    30   13   14 1
    31   13   19 1
    32   13   32 1
    33   13   33 1
    34   14   16 1
    35   14   23 1
    36   14   34 1
    37   15   35 1
    38   15   36 1
    39   15   37 1
    40   16   20 1
    41   16   38 1
    42   16   39 1
    43   20   40 1
