@<TRIPOS>MOLECULE
*****
   32    33     0     0     0
SMALL
NO_CHARGES

@<TRIPOS>ATOM
      1 C1          4.7474   -0.2899   -1.3260 C.ar      1 <0>         0.0000
      2 C2          3.5647    0.4385   -1.1982 C.ar      1 <0>         0.0000
      3 C3          4.9286   -1.4606   -0.5896 C.ar      1 <0>         0.0000
      4 C4         -0.2600   -4.8395    0.7101 C.ar      1 <0>         0.0000
      5 C5         -0.9615   -4.4814   -0.4358 C.ar      1 <0>         0.0000
      6 C6          2.5631   -0.0039   -0.3340 C.ar      1 <0>         0.0000
      7 C7          3.9270   -1.9030    0.2746 C.ar      1 <0>         0.0000
      8 C8          0.6021   -3.9250    1.3049 C.ar      1 <0>         0.0000
      9 C9         -0.7672   -3.2069   -0.9435 C.ar      1 <0>         0.0000
     10 C10         2.7442   -1.1746    0.4024 C.ar      1 <0>         0.0000
     11 C11         0.7266   -2.6755    0.7192 C.ar      1 <0>         0.0000
     12 C12         1.7843    0.3876    2.5994 C.3       1 <0>         0.0000
     13 C13        -0.1878   -0.9791    2.7236 C.3       1 <0>         0.0000
     14 C14         1.6567   -1.6543    1.3398 C.3       1 <0>         0.0000
     15 N1          0.0617   -2.2915   -0.3935 N.ar      1 <0>         0.0000
     16 N2          0.9013   -0.5170    1.8640 N.3       1 <0>         0.0000
     17 H1          5.5280    0.0551   -1.9978 H         1 <0>         0.0000
     18 H2          3.4237    1.3505   -1.7705 H         1 <0>         0.0000
     19 H3          5.8499   -2.0272   -0.6881 H         1 <0>         0.0000
     20 H4         -0.3851   -5.8293    1.1387 H         1 <0>         0.0000
     21 H5         -1.6389   -5.1780   -0.9163 H         1 <0>         0.0000
     22 H6          1.6449    0.5700   -0.2410 H         1 <0>         0.0000
     23 H7          4.0768   -2.8163    0.8442 H         1 <0>         0.0000
     24 H8          1.1551   -4.1919    2.1991 H         1 <0>         0.0000
     25 H9         -1.2908   -2.8787   -1.8353 H         1 <0>         0.0000
     26 H10         2.5958    0.7294    1.9517 H         1 <0>         0.0000
     27 H11         2.2157   -0.1249    3.4635 H         1 <0>         0.0000
     28 H12         1.2248    1.2584    2.9518 H         1 <0>         0.0000
     29 H13        -0.8438   -1.6545    2.1685 H         1 <0>         0.0000
     30 H14        -0.7766   -0.1287    3.0778 H         1 <0>         0.0000
     31 H15         0.2143   -1.5119    3.5896 H         1 <0>         0.0000
     32 H16         2.1188   -2.1085    2.2261 H         1 <0>         0.0000
@<TRIPOS>BOND
     1    1    3 ar
     2    1    2 ar
     3    1   17 1
     4    2    6 ar
     5    2   18 1
     6    3    7 ar
     7    3   19 1
     8    4    5 ar
     9    4    8 ar
    10    4   20 1
    11    5    9 ar
    12    5   21 1
    13    6   10 ar
    14    6   22 1
    15    7   10 ar
    16    7   23 1
    17    8   11 ar
    18    8   24 1
    19    9   15 ar
    20    9   25 1
    21   10   14 1
    22   11   14 1
    23   11   15 ar
    24   12   16 1
    25   12   26 1
    26   12   27 1
    27   12   28 1
    28   13   16 1
    29   13   29 1
    30   13   30 1
    31   13   31 1
    32   14   16 1
    33   14   32 1
