@<TRIPOS>MOLECULE
*****
   23    23     0     0     0
SMALL
NO_CHARGES

@<TRIPOS>ATOM
      1 C1          4.7475   -3.3714    2.9504 C.1       1 <0>         0.0000
      2 C2          3.8263   -2.6609    2.6073 C.1       1 <0>         0.0000
      3 C3          1.9465   -0.8121   -0.0075 C.ar      1 <0>         0.0000
      4 C4          0.8956   -0.2309    0.7110 C.ar      1 <0>         0.0000
      5 C5          2.8853   -1.6012    0.6512 C.ar      1 <0>         0.0000
      6 C6          0.7998   -0.4491    2.0829 C.ar      1 <0>         0.0000
      7 C7          2.8033   -1.8326    2.0414 C.ar      1 <0>         0.0000
      8 C8          1.7363   -1.2413    2.7647 C.ar      1 <0>         0.0000
      9 C9          1.5036   -1.3852    4.2371 C.2       1 <0>         0.0000
     10 C10         3.3913   -3.2155    6.7544 C.3       1 <0>         0.0000
     11 C11         2.2539   -2.3296    6.2801 C.3       1 <0>         0.0000
     12 O1          0.5694   -0.8579    4.8212 O.2       1 <0>         0.0000
     13 O2          2.4215   -2.1498    4.8513 O.3       1 <0>         0.0000
     14 H1          5.5414   -3.9962    3.3005 H         1 <0>         0.0000
     15 H2          2.0343   -0.6508   -1.0787 H         1 <0>         0.0000
     16 H3          0.1585    0.3863    0.2049 H         1 <0>         0.0000
     17 H4          3.7032   -2.0552    0.1005 H         1 <0>         0.0000
     18 H5         -0.0055   -0.0097    2.6619 H         1 <0>         0.0000
     19 H6          3.3635   -4.1861    6.2509 H         1 <0>         0.0000
     20 H7          4.3588   -2.7481    6.5501 H         1 <0>         0.0000
     21 H8          3.3049   -3.3802    7.8333 H         1 <0>         0.0000
     22 H9          2.2665   -1.3469    6.7600 H         1 <0>         0.0000
     23 H10         1.2742   -2.7800    6.4631 H         1 <0>         0.0000
@<TRIPOS>BOND
     1    1    2 3
     2    1   14 1
     3    2    7 1
     4    3    4 ar
     5    3    5 ar
     6    3   15 1
     7    4    6 ar
     8    4   16 1
     9    5    7 ar
    10    5   17 1
    11    6    8 ar
    12    6   18 1
    13    7    8 ar
    14    8    9 1
    15    9   12 2
    16    9   13 1
    17   10   11 1
    18   10   19 1
    19   10   20 1
    20   10   21 1
    21   11   13 1
    22   11   22 1
    23   11   23 1
