@<TRIPOS>MOLECULE
*****
   48    51     0     0     0
SMALL
NO_CHARGES

@<TRIPOS>ATOM
      1 C1          3.5995   -3.0215   -1.1501 C.ar      1 <0>         0.0000
      2 C2          5.3815   -2.1308    0.2128 C.ar      1 <0>         0.0000
      3 C3          3.1379   -1.5297    2.1907 C.ar      1 <0>         0.0000
      4 C4          1.8702   -0.9438    0.2219 C.ar      1 <0>         0.0000
      5 C5          4.5289   -3.6882   -1.9473 C.ar      1 <0>         0.0000
      6 C6          6.3216   -2.7969   -0.5751 C.ar      1 <0>         0.0000
      7 C7          2.1565   -0.9592    3.0015 C.ar      1 <0>         0.0000
      8 C8          0.8853   -0.3662    1.0215 C.ar      1 <0>         0.0000
      9 C9          8.8494   -5.6186    0.3641 C.ar      1 <0>         0.0000
     10 C10         9.5861   -6.9487   -1.5306 C.ar      1 <0>         0.0000
     11 C11        -1.9449   -2.4673    0.5686 C.ar      1 <0>         0.0000
     12 C12        -0.2751   -3.4148    2.0545 C.ar      1 <0>         0.0000
     13 C13        10.1676   -5.5310    0.8195 C.ar      1 <0>         0.0000
     14 C14        10.9050   -6.8564   -1.0825 C.ar      1 <0>         0.0000
     15 C15        -1.4414   -3.2257   -0.4897 C.ar      1 <0>         0.0000
     16 C16         0.2401   -4.1616    0.9936 C.ar      1 <0>         0.0000
     17 C17         4.0068   -2.2340   -0.0580 C.ar      1 <0>         0.0000
     18 C18         3.0012   -1.5536    0.7914 C.ar      1 <0>         0.0000
     19 C19         5.8870   -3.5699   -1.6513 C.ar      1 <0>         0.0000
     20 C20         1.0234   -0.4050    2.4078 C.ar      1 <0>         0.0000
     21 C21         8.5691   -6.3293   -0.8026 C.ar      1 <0>         0.0000
     22 C22        -1.3507   -2.5546    1.8286 C.ar      1 <0>         0.0000
     23 C23        11.1849   -6.1486    0.0897 C.ar      1 <0>         0.0000
     24 C24        -0.3422   -4.0576   -0.2709 C.ar      1 <0>         0.0000
     25 O1          6.8801   -4.1696   -2.4392 O.3       1 <0>         0.0000
     26 O2         -0.0335    0.0925    3.1909 O.3       1 <0>         0.0000
     27 O3          7.2244   -6.4381   -1.1746 O.3       1 <0>         0.0000
     28 O4         -1.9070   -1.7167    2.8070 O.3       1 <0>         0.0000
     29 S1          6.7869   -5.8285   -2.6830 S.3       1 <0>         0.0000
     30 S2         -0.9114   -1.0901    4.0107 S.3       1 <0>         0.0000
     31 Cl1        12.8446   -6.0361    0.6534 Cl        1 <0>         0.0000
     32 Cl2         0.3217   -4.9835   -1.6111 Cl        1 <0>         0.0000
     33 H1          2.5421   -3.1402   -1.3645 H         1 <0>         0.0000
     34 H2          5.7231   -1.5074    1.0347 H         1 <0>         0.0000
     35 H3          4.0001   -2.0019    2.6534 H         1 <0>         0.0000
     36 H4          1.7556   -0.9258   -0.8579 H         1 <0>         0.0000
     37 H5          4.2025   -4.3083   -2.7768 H         1 <0>         0.0000
     38 H6          7.3866   -2.7143   -0.3796 H         1 <0>         0.0000
     39 H7          2.2458   -0.9780    4.0838 H         1 <0>         0.0000
     40 H8         -0.0046    0.0781    0.5875 H         1 <0>         0.0000
     41 H9          8.0351   -5.1479    0.9063 H         1 <0>         0.0000
     42 H10         9.3504   -7.4929   -2.4401 H         1 <0>         0.0000
     43 H11        -2.7813   -1.7907    0.4232 H         1 <0>         0.0000
     44 H12         0.1896   -3.4708    3.0323 H         1 <0>         0.0000
     45 H13        10.4023   -4.9843    1.7273 H         1 <0>         0.0000
     46 H14        11.7081   -7.3343   -1.6343 H         1 <0>         0.0000
     47 H15        -1.8892   -3.1581   -1.4760 H         1 <0>         0.0000
     48 H16         1.0949   -4.8118    1.1492 H         1 <0>         0.0000
@<TRIPOS>BOND
     1    1    5 ar
     2    1   17 ar
     3    1   33 1
     4    2    6 ar
     5    2   17 ar
     6    2   34 1
     7    3    7 ar
     8    3   18 ar
     9    3   35 1
    10    4    8 ar
    11    4   18 ar
    12    4   36 1
    13    5   19 ar
    14    5   37 1
    15    6   19 ar
    16    6   38 1
    17    7   20 ar
    18    7   39 1
    19    8   20 ar
    20    8   40 1
    21    9   13 ar
    22    9   21 ar
    23    9   41 1
    24   10   14 ar
    25   10   21 ar
    26   10   42 1
    27   11   15 ar
    28   11   22 ar
    29   11   43 1
    30   12   16 ar
    31   12   22 ar
    32   12   44 1
    33   13   23 ar
    34   13   45 1
    35   14   23 ar
    36   14   46 1
    37   15   24 ar
    38   15   47 1
    39   16   24 ar
    40   16   48 1
    41   17   18 1
    42   19   25 1
    43   20   26 1
    44   21   27 1
    45   22   28 1
    46   23   31 1
    47   24   32 1
    48   25   29 1
    49   26   30 1
    50   27   29 1
    51   28   30 1
