@<TRIPOS>MOLECULE
*****
   61    64     0     0     0
SMALL
NO_CHARGES

@<TRIPOS>ATOM
      1 C1         -3.8687   -9.5772    3.8743 C.ar      1 <0>         0.0000
      2 C2         -3.4553   -7.4392    2.7949 C.ar      1 <0>         0.0000
      3 C3         -2.7894   -9.3695    4.7230 C.ar      1 <0>         0.0000
      4 C4         -2.3718   -7.2355    3.6454 C.ar      1 <0>         0.0000
      5 C5         -7.2484   -8.4543   -0.7990 C.ar      1 <0>         0.0000
      6 C6         -4.2171   -8.6208    2.8950 C.ar      1 <0>         0.0000
      7 C7         -2.0422   -8.1937    4.6042 C.ar      1 <0>         0.0000
      8 C8         -6.7627   -7.2651   -1.3166 C.ar      1 <0>         0.0000
      9 C9         -5.7349   -6.6007   -0.5978 C.ar      1 <0>         0.0000
     10 C10        -5.7919   -8.3122    0.9339 C.ar      1 <0>         0.0000
     11 C11        -1.6557   -4.7114    0.3014 C.3       1 <0>         0.0000
     12 C12        -2.9402   -2.5632    0.1188 C.3       1 <0>         0.0000
     13 C13        -2.7600   -5.4164   -0.4950 C.3       1 <0>         0.0000
     14 C14        -4.0532   -3.2752   -0.6609 C.3       1 <0>         0.0000
     15 C15         1.5677   -2.4412    2.0086 C.3       1 <0>         0.0000
     16 C16         0.6782   -0.3444    1.0089 C.3       1 <0>         0.0000
     17 C17         0.6621   -3.2409    1.0660 C.3       1 <0>         0.0000
     18 C18        -0.1957   -1.2140    0.1039 C.3       1 <0>         0.0000
     19 C19        -1.5552   -3.2203   -0.0595 C.3       1 <0>         0.0000
     20 C20        -4.1217   -4.7499   -0.2673 C.3       1 <0>         0.0000
     21 C21         1.9442   -1.0897    1.4056 C.3       1 <0>         0.0000
     22 N1         -6.7778   -9.0047    0.3298 N.ar      1 <0>         0.0000
     23 N2         -5.2665   -7.1510    0.5387 N.ar      1 <0>         0.0000
     24 N3         -0.5557   -2.4866    0.7453 N.3       1 <0>         0.0000
     25 N4         -1.3373   -7.1766    7.0496 N.pl3     1 <0>         0.0000
     26 N5         -5.3084   -8.9216    2.0782 N.pl3     1 <0>         0.0000
     27 N6         -5.2010   -5.4223   -0.9922 N.pl3     1 <0>         0.0000
     28 O1         -0.1568   -9.2266    6.1338 O.2       1 <0>         0.0000
     29 O2          0.2229   -6.9269    5.0427 O.2       1 <0>         0.0000
     30 O3          2.6722   -0.2605    2.3206 O.3       1 <0>         0.0000
     31 S1         -0.6486   -7.9208    5.6809 S.o2      1 <0>         0.0000
     32 Br1        -7.4543   -6.5409   -2.9497 Br        1 <0>         0.0000
     33 H1         -4.4436  -10.4970    3.9555 H         1 <0>         0.0000
     34 H2         -3.7143   -6.7048    2.0490 H         1 <0>         0.0000
     35 H3         -2.5115  -10.1200    5.4560 H         1 <0>         0.0000
     36 H4         -1.7700   -6.3367    3.5528 H         1 <0>         0.0000
     37 H5         -8.0435   -8.9921   -1.3113 H         1 <0>         0.0000
     38 H6         -1.8557   -4.8097    1.3770 H         1 <0>         0.0000
     39 H7         -0.7110   -5.2237    0.1050 H         1 <0>         0.0000
     40 H8         -2.9142   -1.5142   -0.1862 H         1 <0>         0.0000
     41 H9         -3.1748   -2.5703    1.1901 H         1 <0>         0.0000
     42 H10        -2.5278   -5.3833   -1.5677 H         1 <0>         0.0000
     43 H11        -2.8113   -6.4700   -0.2091 H         1 <0>         0.0000
     44 H12        -5.0157   -2.7886   -0.4669 H         1 <0>         0.0000
     45 H13        -3.8618   -3.1954   -1.7409 H         1 <0>         0.0000
     46 H14         1.0433   -2.2700    2.9553 H         1 <0>         0.0000
     47 H15         2.4671   -3.0324    2.2256 H         1 <0>         0.0000
     48 H16         0.9377    0.5874    0.4951 H         1 <0>         0.0000
     49 H17         0.1243   -0.0842    1.9175 H         1 <0>         0.0000
     50 H18         1.2265   -3.5118    0.1504 H         1 <0>         0.0000
     51 H19         0.3945   -4.1714    1.5665 H         1 <0>         0.0000
     52 H20        -1.1050   -0.6621   -0.1407 H         1 <0>         0.0000
     53 H21         0.3307   -1.3983   -0.8547 H         1 <0>         0.0000
     54 H22        -1.2819   -3.1698   -1.1332 H         1 <0>         0.0000
     55 H23        -4.3669   -4.8136    0.7983 H         1 <0>         0.0000
     56 H24         2.5508   -1.2613    0.5005 H         1 <0>         0.0000
     57 H25        -1.0919   -7.7204    7.8762 H         1 <0>         0.0000
     58 H26        -0.9860   -6.2228    7.1261 H         1 <0>         0.0000
     59 H27        -5.7723   -9.8050    2.2542 H         1 <0>         0.0000
     60 H28        -5.5228   -5.0328   -1.8690 H         1 <0>         0.0000
     61 H29         3.4549   -0.7538    2.6133 H         1 <0>         0.0000
@<TRIPOS>BOND
     1    1    3 ar
     2    1    6 ar
     3    1   33 1
     4    2    4 ar
     5    2    6 ar
     6    2   34 1
     7    3    7 ar
     8    3   35 1
     9    4    7 ar
    10    4   36 1
    11    5    8 ar
    12    5   22 ar
    13    5   37 1
    14    6   26 1
    15    7   31 1
    16    8    9 ar
    17    8   32 1
    18    9   23 ar
    19    9   27 1
    20   10   22 ar
    21   10   23 ar
    22   10   26 1
    23   11   13 1
    24   11   19 1
    25   11   38 1
    26   11   39 1
    27   12   14 1
    28   12   19 1
    29   12   40 1
    30   12   41 1
    31   13   20 1
    32   13   42 1
    33   13   43 1
    34   14   20 1
    35   14   44 1
    36   14   45 1
    37   15   17 1
    38   15   21 1
    39   15   46 1
    40   15   47 1
    41   16   18 1
    42   16   21 1
    43   16   48 1
    44   16   49 1
    45   17   24 1
    46   17   50 1
    47   17   51 1
    48   18   24 1
    49   18   52 1
    50   18   53 1
    51   19   24 1
    52   19   54 1
    53   20   27 1
    54   20   55 1
    55   21   30 1
    56   21   56 1
    57   25   31 1
    58   25   57 1
    59   25   58 1
    60   26   59 1
    61   27   60 1
    62   28   31 2
    63   29   31 2
    64   30   61 1
