@<TRIPOS>MOLECULE
*****
   66    70     0     0     0
SMALL
NO_CHARGES

@<TRIPOS>ATOM
      1 C1         -8.1954    3.5103   -5.3913 C.1       1 <0>         0.0000
      2 C2         -9.1383    4.2054   -5.7221 C.1       1 <0>         0.0000
      3 C3          0.3669   -0.5840   -2.3554 C.ar      1 <0>         0.0000
      4 C4          0.2573   -1.9298   -1.9858 C.ar      1 <0>         0.0000
      5 C5         -6.6046    1.6890   -5.8986 C.ar      1 <0>         0.0000
      6 C6         -0.7901    0.1468   -2.6175 C.ar      1 <0>         0.0000
      7 C7         -1.0008   -2.5227   -1.8945 C.ar      1 <0>         0.0000
      8 C8         -5.5335    0.8863   -5.5509 C.ar      1 <0>         0.0000
      9 C9         -6.4644    2.8506   -3.7726 C.ar      1 <0>         0.0000
     10 C10        -7.0895    2.6899   -5.0130 C.ar      1 <0>         0.0000
     11 C11        -5.3782    2.0382   -3.4175 C.ar      1 <0>         0.0000
     12 C12        -2.0576   -0.4483   -2.5137 C.ar      1 <0>         0.0000
     13 C13        -2.1782   -1.8023   -2.1562 C.ar      1 <0>         0.0000
     14 C14        -4.8975    1.0470   -4.3006 C.ar      1 <0>         0.0000
     15 C15        -4.7454    2.1961   -2.1057 C.2       1 <0>         0.0000
     16 C16        -3.2554    0.3937   -2.8279 C.2       1 <0>         0.0000
     17 C17        -5.2801   -0.4168    2.1604 C.3       1 <0>         0.0000
     18 C18       -11.2378    5.4950   -5.0082 C.3       1 <0>         0.0000
     19 C19       -10.2893    6.4953   -5.6113 C.3       1 <0>         0.0000
     20 C20        -4.8031    0.7121    1.2408 C.3       1 <0>         0.0000
     21 C21        -4.1143   -1.0002    2.9632 C.3       1 <0>         0.0000
     22 C22        -2.5240   -0.3593    1.2672 C.3       1 <0>         0.0000
     23 C23       -10.2526    5.0437   -6.0840 C.3       1 <0>         0.0000
     24 C24        -3.6255    0.2340    0.3809 C.3       1 <0>         0.0000
     25 C25        -3.5105   -2.5023   -2.0179 C.3       1 <0>         0.0000
     26 C26        -1.0594   -1.5076    3.6469 C.3       1 <0>         0.0000
     27 C27        -1.2648   -3.1441    1.7228 C.3       1 <0>         0.0000
     28 C28        -3.0563    1.3407   -0.5274 C.3       1 <0>         0.0000
     29 C29        -2.0304   -2.2876    2.7390 C.3       1 <0>         0.0000
     30 N1         -3.8218    0.2360   -3.9857 N.2       1 <0>         0.0000
     31 N2         -3.6628    1.3214   -1.8749 N.am      1 <0>         0.0000
     32 N3         -3.0532   -1.4637    2.0665 N.3       1 <0>         0.0000
     33 O1         -5.1074    3.0016   -1.2484 O.2       1 <0>         0.0000
     34 H1          1.3418   -0.1123   -2.4430 H         1 <0>         0.0000
     35 H2          1.1492   -2.5142   -1.7748 H         1 <0>         0.0000
     36 H3         -7.0914    1.5640   -6.8614 H         1 <0>         0.0000
     37 H4         -0.7180    1.1916   -2.9107 H         1 <0>         0.0000
     38 H5         -1.0810   -3.5694   -1.6104 H         1 <0>         0.0000
     39 H6         -5.1565    0.1224   -6.2244 H         1 <0>         0.0000
     40 H7         -6.8091    3.6002   -3.0681 H         1 <0>         0.0000
     41 H8         -6.0515   -0.0501    2.8474 H         1 <0>         0.0000
     42 H9         -5.7289   -1.2178    1.5604 H         1 <0>         0.0000
     43 H10       -11.0457    5.1543   -3.9963 H         1 <0>         0.0000
     44 H11       -12.2861    5.5389   -5.2884 H         1 <0>         0.0000
     45 H12       -10.6826    7.2297   -6.3079 H         1 <0>         0.0000
     46 H13        -9.4528    6.8338   -5.0091 H         1 <0>         0.0000
     47 H14        -5.6174    1.0782    0.6085 H         1 <0>         0.0000
     48 H15        -4.4743    1.5672    1.8474 H         1 <0>         0.0000
     49 H16        -3.7498   -0.2331    3.6745 H         1 <0>         0.0000
     50 H17        -4.4597   -1.8525    3.5584 H         1 <0>         0.0000
     51 H18        -1.7181   -0.7323    0.6296 H         1 <0>         0.0000
     52 H19        -2.0979    0.4458    1.8982 H         1 <0>         0.0000
     53 H20       -10.6747    4.8514   -7.0672 H         1 <0>         0.0000
     54 H21        -3.9827   -0.5801   -0.2551 H         1 <0>         0.0000
     55 H22        -3.7103   -2.7389   -0.9665 H         1 <0>         0.0000
     56 H23        -4.3367   -1.9008   -2.3991 H         1 <0>         0.0000
     57 H24        -3.5054   -3.4462   -2.5727 H         1 <0>         0.0000
     58 H25        -0.3976   -0.8599    3.0622 H         1 <0>         0.0000
     59 H26        -1.5946   -0.8831    4.3694 H         1 <0>         0.0000
     60 H27        -0.4271   -2.2018    4.2110 H         1 <0>         0.0000
     61 H28        -0.6211   -2.5397    1.0767 H         1 <0>         0.0000
     62 H29        -1.9658   -3.6924    1.0863 H         1 <0>         0.0000
     63 H30        -0.6248   -3.8661    2.2415 H         1 <0>         0.0000
     64 H31        -1.9789    1.2277   -0.6394 H         1 <0>         0.0000
     65 H32        -3.2546    2.3290   -0.1141 H         1 <0>         0.0000
     66 H33        -2.5970   -2.9772    3.3765 H         1 <0>         0.0000
@<TRIPOS>BOND
     1    1    2 3
     2    1   10 1
     3    2   23 1
     4    3    4 ar
     5    3    6 ar
     6    3   34 1
     7    4    7 ar
     8    4   35 1
     9    5    8 ar
    10    5   10 ar
    11    5   36 1
    12    6   12 ar
    13    6   37 1
    14    7   13 ar
    15    7   38 1
    16    8   14 ar
    17    8   39 1
    18    9   10 ar
    19    9   11 ar
    20    9   40 1
    21   11   14 ar
    22   11   15 1
    23   12   13 ar
    24   12   16 1
    25   13   25 1
    26   14   30 1
    27   15   31 am
    28   15   33 2
    29   16   30 2
    30   16   31 1
    31   17   20 1
    32   17   21 1
    33   17   41 1
    34   17   42 1
    35   18   19 1
    36   18   23 1
    37   18   43 1
    38   18   44 1
    39   19   23 1
    40   19   45 1
    41   19   46 1
    42   20   24 1
    43   20   47 1
    44   20   48 1
    45   21   32 1
    46   21   49 1
    47   21   50 1
    48   22   24 1
    49   22   32 1
    50   22   51 1
    51   22   52 1
    52   23   53 1
    53   24   28 1
    54   24   54 1
    55   25   55 1
    56   25   56 1
    57   25   57 1
    58   26   29 1
    59   26   58 1
    60   26   59 1
    61   26   60 1
    62   27   29 1
    63   27   61 1
    64   27   62 1
    65   27   63 1
    66   28   31 1
    67   28   64 1
    68   28   65 1
    69   29   32 1
    70   29   66 1
