@<TRIPOS>MOLECULE
*****
   57    61     0     0     0
SMALL
NO_CHARGES

@<TRIPOS>ATOM
      1 C1         -1.5758    1.7325    1.7440 C.ar      1 <0>         0.0000
      2 C2         -1.4586    0.6148    0.8820 C.ar      1 <0>         0.0000
      3 C3         -1.1897   -4.4855    3.7435 C.ar      1 <0>         0.0000
      4 C4         -2.5049    1.7395    2.7751 C.ar      1 <0>         0.0000
      5 C5         -6.1564    1.6615    5.0218 C.ar      1 <0>         0.0000
      6 C6         -3.9299    1.6549    5.9440 C.ar      1 <0>         0.0000
      7 C7         -1.9162   -3.6778    2.8605 C.ar      1 <0>         0.0000
      8 C8         -2.2669   -0.5068    1.0278 C.ar      1 <0>         0.0000
      9 C9         -1.8428   -5.3408    4.6280 C.ar      1 <0>         0.0000
     10 C10        -6.5717    2.5342    6.0198 C.ar      1 <0>         0.0000
     11 C11        -4.3329    2.5359    6.9520 C.ar      1 <0>         0.0000
     12 C12        -3.9795   -4.5959    3.7464 C.ar      1 <0>         0.0000
     13 C13        -3.3246    0.6074    2.9545 C.ar      1 <0>         0.0000
     14 C14        -4.8266    1.1942    4.9676 C.ar      1 <0>         0.0000
     15 C15        -4.3613    0.2913    3.8947 C.2       1 <0>         0.0000
     16 C16        -3.3144   -3.7328    2.8632 C.ar      1 <0>         0.0000
     17 C17        -3.2131   -0.4993    2.0673 C.ar      1 <0>         0.0000
     18 C18        -5.6632    2.9807    6.9951 C.ar      1 <0>         0.0000
     19 C19        -3.2455   -5.3945    4.6331 C.ar      1 <0>         0.0000
     20 C20        -4.8391   -0.9726    3.5535 C.2       1 <0>         0.0000
     21 C21        -5.9118   -1.7659    4.1924 C.2       1 <0>         0.0000
     22 C22        -5.6233    5.4316   11.2694 C.3       1 <0>         0.0000
     23 C23        -6.9034    4.6934   10.9424 C.3       1 <0>         0.0000
     24 C24        -6.0590    5.2667    9.8282 C.3       1 <0>         0.0000
     25 C25        -5.2359   -6.2869    5.6148 C.3       1 <0>         0.0000
     26 C26        -4.1270   -2.8341    1.9490 C.3       1 <0>         0.0000
     27 C27        -5.2795    4.3412    8.9386 C.3       1 <0>         0.0000
     28 N1         -4.1579   -1.4413    2.4243 N.pl3     1 <0>         0.0000
     29 O1         -6.5052   -2.6808    3.6466 O.2       1 <0>         0.0000
     30 O2         -6.2270   -1.4435    5.4726 O.3       1 <0>         0.0000
     31 O3         -3.8110   -6.2504    5.5385 O.3       1 <0>         0.0000
     32 O4         -6.1679    3.8324    7.9319 O.3       1 <0>         0.0000
     33 H1         -0.9300    2.5925    1.5892 H         1 <0>         0.0000
     34 H2         -0.7224    0.6359    0.0828 H         1 <0>         0.0000
     35 H3         -0.1033   -4.4473    3.7427 H         1 <0>         0.0000
     36 H4         -2.6038    2.5975    3.4344 H         1 <0>         0.0000
     37 H5         -6.8668    1.3340    4.2677 H         1 <0>         0.0000
     38 H6         -2.9008    1.3062    5.9234 H         1 <0>         0.0000
     39 H7         -1.3953   -3.0052    2.1853 H         1 <0>         0.0000
     40 H8         -2.1668   -1.3474    0.3484 H         1 <0>         0.0000
     41 H9         -1.2920   -5.9705    5.3208 H         1 <0>         0.0000
     42 H10        -7.5964    2.8910    6.0621 H         1 <0>         0.0000
     43 H11        -3.6085    2.8581    7.6910 H         1 <0>         0.0000
     44 H12        -5.0620   -4.6136    3.7409 H         1 <0>         0.0000
     45 H13        -5.6947    6.4211   11.7102 H         1 <0>         0.0000
     46 H14        -4.7742    4.8484   11.6159 H         1 <0>         0.0000
     47 H15        -6.9130    3.6134   11.0590 H         1 <0>         0.0000
     48 H16        -7.8489    5.1783   11.1649 H         1 <0>         0.0000
     49 H17        -6.4440    6.1523    9.3291 H         1 <0>         0.0000
     50 H18        -5.4719   -6.9912    6.4137 H         1 <0>         0.0000
     51 H19        -5.6765   -6.6419    4.6753 H         1 <0>         0.0000
     52 H20        -5.6490   -5.3014    5.8593 H         1 <0>         0.0000
     53 H21        -3.6971   -2.8122    0.9461 H         1 <0>         0.0000
     54 H22        -5.1524   -3.1873    1.8684 H         1 <0>         0.0000
     55 H23        -4.8660    3.5071    9.5219 H         1 <0>         0.0000
     56 H24        -4.4471    4.8712    8.4563 H         1 <0>         0.0000
     57 H25        -5.6953   -0.6833    5.7779 H         1 <0>         0.0000
@<TRIPOS>BOND
     1    1    2 ar
     2    1    4 ar
     3    1   33 1
     4    2    8 ar
     5    2   34 1
     6    3    7 ar
     7    3    9 ar
     8    3   35 1
     9    4   13 ar
    10    4   36 1
    11    5   10 ar
    12    5   14 ar
    13    5   37 1
    14    6   11 ar
    15    6   14 ar
    16    6   38 1
    17    7   16 ar
    18    7   39 1
    19    8   17 ar
    20    8   40 1
    21    9   19 ar
    22    9   41 1
    23   10   18 ar
    24   10   42 1
    25   11   18 ar
    26   11   43 1
    27   12   16 ar
    28   12   19 ar
    29   12   44 1
    30   13   15 1
    31   13   17 ar
    32   14   15 1
    33   15   20 2
    34   16   26 1
    35   17   28 1
    36   18   32 1
    37   19   31 1
    38   20   21 1
    39   20   28 1
    40   21   29 2
    41   21   30 1
    42   22   23 1
    43   22   24 1
    44   22   45 1
    45   22   46 1
    46   23   24 1
    47   23   47 1
    48   23   48 1
    49   24   27 1
    50   24   49 1
    51   25   31 1
    52   25   50 1
    53   25   51 1
    54   25   52 1
    55   26   28 1
    56   26   53 1
    57   26   54 1
    58   27   32 1
    59   27   55 1
    60   27   56 1
    61   30   57 1
