@<TRIPOS>MOLECULE
*****
   49    50     0     0     0
SMALL
NO_CHARGES

@<TRIPOS>ATOM
      1 C1          2.8545    5.0874    1.3729 C.ar      1 <0>         0.0000
      2 C2          0.8994    4.8742    2.7853 C.ar      1 <0>         0.0000
      3 C3          2.8357    3.7186    1.1254 C.ar      1 <0>         0.0000
      4 C4          0.8781    3.5021    2.5484 C.ar      1 <0>         0.0000
      5 C5          1.8726    5.6822    2.1784 C.ar      1 <0>         0.0000
      6 C6          1.8230    2.9293    1.6884 C.ar      1 <0>         0.0000
      7 C7          0.4856    5.7479   -1.0222 C.2       1 <0>         0.0000
      8 C8         -0.4434    4.9367   -0.4038 C.2       1 <0>         0.0000
      9 C9          0.2204    7.1265   -0.7036 C.2       1 <0>         0.0000
     10 C10         1.8572    7.1642    2.2866 C.2       1 <0>         0.0000
     11 C11        -0.6096    3.4692   -0.3166 C.2       1 <0>         0.0000
     12 C12        -0.7801    0.9583   -2.8347 C.3       1 <0>         0.0000
     13 C13        -1.1505    8.8455    4.7466 C.3       1 <0>         0.0000
     14 C14        -1.1818   10.8343    3.1709 C.3       1 <0>         0.0000
     15 C15         0.4995    0.6837   -2.0379 C.3       1 <0>         0.0000
     16 C16         0.5347    9.0512    2.8678 C.3       1 <0>         0.0000
     17 C17         1.7939    1.1086    0.1078 C.3       1 <0>         0.0000
     18 C18        -0.8941    9.3334    3.3151 C.3       1 <0>         0.0000
     19 C19         0.5049    1.3616   -0.6708 C.3       1 <0>         0.0000
     20 N1         -0.8033    7.3640    0.0801 N.2       1 <0>         0.0000
     21 O1          2.7236    7.8950    1.8338 O.2       1 <0>         0.0000
     22 O2         -1.5700    2.9639    0.2385 O.2       1 <0>         0.0000
     23 O3          1.7136    1.5740    1.4592 O.3       1 <0>         0.0000
     24 O4          0.7391    7.6172    2.8952 O.3       1 <0>         0.0000
     25 O5          0.4137    2.8043   -0.8765 O.3       1 <0>         0.0000
     26 S1         -1.5416    5.9263    0.4961 S.3       1 <0>         0.0000
     27 Cl1         1.7786    5.2567   -2.0469 Cl        1 <0>         0.0000
     28 Cl2         1.1775    8.4378   -1.2958 Cl        1 <0>         0.0000
     29 H1          3.6094    5.7211    0.9187 H         1 <0>         0.0000
     30 H2          0.1397    5.3285    3.4112 H         1 <0>         0.0000
     31 H3          3.5857    3.2772    0.4778 H         1 <0>         0.0000
     32 H4          0.1078    2.8678    2.9753 H         1 <0>         0.0000
     33 H5         -0.8876    2.0252   -3.0492 H         1 <0>         0.0000
     34 H6         -0.7608    0.4252   -3.7900 H         1 <0>         0.0000
     35 H7         -1.6677    0.6340   -2.2819 H         1 <0>         0.0000
     36 H8         -0.5087    9.3769    5.4604 H         1 <0>         0.0000
     37 H9         -0.9477    7.7751    4.8446 H         1 <0>         0.0000
     38 H10        -2.1914    9.0228    5.0380 H         1 <0>         0.0000
     39 H11        -0.5214   11.4273    3.8154 H         1 <0>         0.0000
     40 H12        -2.2139   11.0591    3.4589 H         1 <0>         0.0000
     41 H13        -1.0398   11.1727    2.1388 H         1 <0>         0.0000
     42 H14         0.6142   -0.3946   -1.8747 H         1 <0>         0.0000
     43 H15         1.3761    1.0158   -2.6071 H         1 <0>         0.0000
     44 H16         0.7120    9.4053    1.8497 H         1 <0>         0.0000
     45 H17         1.2689    9.5239    3.5301 H         1 <0>         0.0000
     46 H18         1.9574    0.0308    0.1844 H         1 <0>         0.0000
     47 H19         2.6442    1.5495   -0.4219 H         1 <0>         0.0000
     48 H20        -1.5551    8.7877    2.6305 H         1 <0>         0.0000
     49 H21        -0.3542    1.0491   -0.0742 H         1 <0>         0.0000
@<TRIPOS>BOND
     1    1    3 ar
     2    1    5 ar
     3    1   29 1
     4    2    4 ar
     5    2    5 ar
     6    2   30 1
     7    3    6 ar
     8    3   31 1
     9    4    6 ar
    10    4   32 1
    11    5   10 1
    12    6   23 1
    13    7    8 2
    14    7    9 1
    15    7   27 1
    16    8   11 1
    17    8   26 1
    18    9   20 2
    19    9   28 1
    20   10   21 2
    21   10   24 1
    22   11   22 2
    23   11   25 1
    24   12   15 1
    25   12   33 1
    26   12   34 1
    27   12   35 1
    28   13   18 1
    29   13   36 1
    30   13   37 1
    31   13   38 1
    32   14   18 1
    33   14   39 1
    34   14   40 1
    35   14   41 1
    36   15   19 1
    37   15   42 1
    38   15   43 1
    39   16   18 1
    40   16   24 1
    41   16   44 1
    42   16   45 1
    43   17   19 1
    44   17   23 1
    45   17   46 1
    46   17   47 1
    47   18   48 1
    48   19   25 1
    49   19   49 1
    50   20   26 1
