@<TRIPOS>MOLECULE
*****
   25    26     0     0     0
SMALL
NO_CHARGES

@<TRIPOS>ATOM
      1 C1          6.5475   -2.2177    0.0677 C.ar      1 <0>         0.0000
      2 C2          6.0944   -3.0349   -0.9687 C.ar      1 <0>         0.0000
      3 C3          5.8066   -2.0789    1.2460 C.ar      1 <0>         0.0000
      4 C4          4.8863   -3.7242   -0.8244 C.ar      1 <0>         0.0000
      5 C5          7.2080   -2.3604    5.1979 C.2       1 <0>         0.0000
      6 C6          5.3514   -3.5584    4.9752 C.2       1 <0>         0.0000
      7 C7          6.6127   -3.6044    5.5484 C.2       1 <0>         0.0000
      8 C8          4.5908   -2.7594    1.3926 C.ar      1 <0>         0.0000
      9 C9          4.1438   -3.5880    0.3464 C.ar      1 <0>         0.0000
     10 C10         4.1403   -1.8422    3.5781 C.3       1 <0>         0.0000
     11 N1          6.3871   -1.6115    4.4578 N.2       1 <0>         0.0000
     12 N2          5.2592   -2.3460    4.3368 N.pl3     1 <0>         0.0000
     13 N3          7.1669   -4.6048    6.3737 N.pl3     1 <0>         0.0000
     14 O1          3.7753   -2.6828    2.4941 O.3       1 <0>         0.0000
     15 Cl1         2.6314   -4.4576    0.5157 Cl        1 <0>         0.0000
     16 H1          7.4893   -1.6845   -0.0280 H         1 <0>         0.0000
     17 H2          6.6718   -3.1433   -1.8822 H         1 <0>         0.0000
     18 H3          6.1953   -1.4649    2.0497 H         1 <0>         0.0000
     19 H4          4.5132   -4.3674   -1.6153 H         1 <0>         0.0000
     20 H5          8.1933   -1.9903    5.4559 H         1 <0>         0.0000
     21 H6          4.5401   -4.2733    4.9555 H         1 <0>         0.0000
     22 H7          3.2433   -1.8142    4.1998 H         1 <0>         0.0000
     23 H8          4.4056   -0.8329    3.2540 H         1 <0>         0.0000
     24 H9          8.1701   -4.6918    6.2446 H         1 <0>         0.0000
     25 H10         6.7365   -5.5116    6.2235 H         1 <0>         0.0000
@<TRIPOS>BOND
     1    1    2 ar
     2    1    3 ar
     3    1   16 1
     4    2    4 ar
     5    2   17 1
     6    3    8 ar
     7    3   18 1
     8    4    9 ar
     9    4   19 1
    10    5    7 1
    11    5   11 2
    12    5   20 1
    13    6    7 2
    14    6   12 1
    15    6   21 1
    16    7   13 1
    17    8    9 ar
    18    8   14 1
    19    9   15 1
    20   10   12 1
    21   10   14 1
    22   10   22 1
    23   10   23 1
    24   11   12 1
    25   13   24 1
    26   13   25 1
