@<TRIPOS>MOLECULE
*****
   18    18     0     0     0
SMALL
NO_CHARGES

@<TRIPOS>ATOM
      1 C1          1.5464    1.1890    4.1536 C.2       1 <0>         0.0000
      2 C2          1.4928    1.3872    2.7375 C.2       1 <0>         0.0000
      3 C3          1.6471   -0.1359    4.4951 C.2       1 <0>         0.0000
      4 C4          1.5514    0.2150    2.0196 C.2       1 <0>         0.0000
      5 C5          0.0907   -0.0033   -0.0549 C.2       1 <0>         0.0000
      6 C6          1.4938    0.0477    0.5281 C.3       1 <0>         0.0000
      7 N1         -0.1660    0.1250   -1.3119 N.2       1 <0>         0.0000
      8 N2         -0.9647   -0.2851    0.8057 N.pl3     1 <0>         0.0000
      9 O1          1.0470    0.2547   -2.0602 O.3       1 <0>         0.0000
     10 S1          1.6725   -1.1525    3.0920 S.3       1 <0>         0.0000
     11 H1          1.5195    1.9922    4.8829 H         1 <0>         0.0000
     12 H2          1.4201    2.3611    2.2621 H         1 <0>         0.0000
     13 H3          1.7130   -0.5713    5.4841 H         1 <0>         0.0000
     14 H4          2.0222    0.8721    0.0426 H         1 <0>         0.0000
     15 H5          2.0172   -0.8607    0.2108 H         1 <0>         0.0000
     16 H6         -0.8879    0.1553    1.7167 H         1 <0>         0.0000
     17 H7         -1.8734   -0.1493    0.3735 H         1 <0>         0.0000
     18 H8          0.7090    0.3623   -2.9626 H         1 <0>         0.0000
@<TRIPOS>BOND
     1    1    2 1
     2    1    3 2
     3    1   11 1
     4    2    4 2
     5    2   12 1
     6    3   10 1
     7    3   13 1
     8    4    6 1
     9    4   10 1
    10    5    6 1
    11    5    7 2
    12    5    8 1
    13    6   14 1
    14    6   15 1
    15    7    9 1
    16    8   16 1
    17    8   17 1
    18    9   18 1
