@<TRIPOS>MOLECULE
*****
   33    34     0     0     0
SMALL
NO_CHARGES

@<TRIPOS>ATOM
      1 C1          2.8383    4.1447   -0.1120 C.2       1 <0>         0.0000
      2 C2          2.7179    3.6497    1.1604 C.2       1 <0>         0.0000
      3 C3          1.5833    2.3766   -0.5843 C.2       1 <0>         0.0000
      4 C4          0.1781    0.3817   -0.9764 C.2       1 <0>         0.0000
      5 C5         -1.1515   -1.6935   -1.5785 C.3       1 <0>         0.0000
      6 C6         -1.5974    0.4665   -2.8116 C.3       1 <0>         0.0000
      7 C7         -2.4369   -1.4469   -0.7815 C.3       1 <0>         0.0000
      8 C8         -2.8341    0.6528   -1.9297 C.3       1 <0>         0.0000
      9 C9         -0.5225   -0.3888   -2.0978 C.3       1 <0>         0.0000
     10 C10         3.5852    5.3740   -0.5444 C.3       1 <0>         0.0000
     11 C11         3.2728    4.1629    2.4574 C.3       1 <0>         0.0000
     12 N1          2.1874    3.4113   -1.0973 N.2       1 <0>         0.0000
     13 N2         -3.3849   -0.6631   -1.5900 N.3       1 <0>         0.0000
     14 N3          0.8669    1.5020   -1.3953 N.am      1 <0>         0.0000
     15 O1          0.1678    0.0528    0.2071 O.2       1 <0>         0.0000
     16 S1          1.7416    2.1855    1.1452 S.3       1 <0>         0.0000
     17 H1         -0.4330   -2.2336   -0.9563 H         1 <0>         0.0000
     18 H2         -1.3905   -2.3204   -2.4449 H         1 <0>         0.0000
     19 H3         -1.8990   -0.0576   -3.7249 H         1 <0>         0.0000
     20 H4         -1.2033    1.4439   -3.1115 H         1 <0>         0.0000
     21 H5         -2.9030   -2.4086   -0.5421 H         1 <0>         0.0000
     22 H6         -2.1818   -0.9501    0.1667 H         1 <0>         0.0000
     23 H7         -2.5609    1.2443   -1.0356 H         1 <0>         0.0000
     24 H8         -3.5929    1.2204   -2.4787 H         1 <0>         0.0000
     25 H9          0.2581   -0.6392   -2.8292 H         1 <0>         0.0000
     26 H10         4.3563    5.1129   -1.2771 H         1 <0>         0.0000
     27 H11         2.9044    6.0831   -1.0276 H         1 <0>         0.0000
     28 H12         4.0667    5.8790    0.2951 H         1 <0>         0.0000
     29 H13         2.4766    4.4103    3.1688 H         1 <0>         0.0000
     30 H14         3.9265    3.4259    2.9376 H         1 <0>         0.0000
     31 H15         3.8612    5.0681    2.2919 H         1 <0>         0.0000
     32 H16        -4.2484   -0.5403   -1.0659 H         1 <0>         0.0000
     33 H17         0.8811    1.7542   -2.3771 H         1 <0>         0.0000
@<TRIPOS>BOND
     1    1    2 2
     2    1   10 1
     3    1   12 1
     4    2   11 1
     5    2   16 1
     6    3   12 2
     7    3   14 1
     8    3   16 1
     9    4    9 1
    10    4   14 am
    11    4   15 2
    12    5    7 1
    13    5    9 1
    14    5   17 1
    15    5   18 1
    16    6    8 1
    17    6    9 1
    18    6   19 1
    19    6   20 1
    20    7   13 1
    21    7   21 1
    22    7   22 1
    23    8   13 1
    24    8   23 1
    25    8   24 1
    26    9   25 1
    27   10   26 1
    28   10   27 1
    29   10   28 1
    30   11   29 1
    31   11   30 1
    32   11   31 1
    33   13   32 1
    34   14   33 1
