@<TRIPOS>MOLECULE
*****
   25    26     0     0     0
SMALL
NO_CHARGES

@<TRIPOS>ATOM
      1 C1         -0.3362   -1.6894   -3.8766 C.ar      1 <0>         0.0000
      2 C2         -0.4155   -1.7244   -6.3127 C.ar      1 <0>         0.0000
      3 C3         -1.0682   -0.4966   -3.8539 C.ar      1 <0>         0.0000
      4 C4         -1.1450   -0.5416   -6.2707 C.ar      1 <0>         0.0000
      5 C5         -1.4868    0.0665   -5.0654 C.ar      1 <0>         0.0000
      6 C6         -0.0267   -2.2859   -5.0960 C.ar      1 <0>         0.0000
      7 C7          2.2330    2.3579   -3.3799 C.3       1 <0>         0.0000
      8 C8          1.7082    3.5079   -2.5178 C.3       1 <0>         0.0000
      9 C9          0.4544    1.5794   -2.2182 C.3       1 <0>         0.0000
     10 C10        -1.0499    1.4008   -2.3660 C.3       1 <0>         0.0000
     11 O1          1.0872    1.5062   -3.4824 O.3       1 <0>         0.0000
     12 O2          0.7189    2.8781   -1.6855 O.3       1 <0>         0.0000
     13 O3         -1.4056    0.0317   -2.6360 O.3       1 <0>         0.0000
     14 F1         -1.5517    0.0349   -7.4205 F         1 <0>         0.0000
     15 F2         -2.2236    1.1974   -5.0848 F         1 <0>         0.0000
     16 Br1         0.9760   -3.9180   -5.1085 Br        1 <0>         0.0000
     17 H1         -0.0199   -2.1213   -2.9340 H         1 <0>         0.0000
     18 H2         -0.1738   -2.1764   -7.2678 H         1 <0>         0.0000
     19 H3          2.5288    2.6528   -4.3879 H         1 <0>         0.0000
     20 H4          3.0618    1.8284   -2.8904 H         1 <0>         0.0000
     21 H5          2.4752    3.9567   -1.8806 H         1 <0>         0.0000
     22 H6          1.2323    4.2868   -3.1245 H         1 <0>         0.0000
     23 H7          0.8738    0.8200   -1.5388 H         1 <0>         0.0000
     24 H8         -1.4260    2.0785   -3.1347 H         1 <0>         0.0000
     25 H9         -1.5259    1.6324   -1.4122 H         1 <0>         0.0000
@<TRIPOS>BOND
     1    1    3 ar
     2    1    6 ar
     3    1   17 1
     4    2    4 ar
     5    2    6 ar
     6    2   18 1
     7    3    5 ar
     8    3   13 1
     9    4    5 ar
    10    4   14 1
    11    5   15 1
    12    6   16 1
    13    7    8 1
    14    7   11 1
    15    7   19 1
    16    7   20 1
    17    8   12 1
    18    8   21 1
    19    8   22 1
    20    9   10 1
    21    9   12 1
    22    9   11 1
    23    9   23 1
    24   10   13 1
    25   10   24 1
    26   10   25 1
