@<TRIPOS>MOLECULE
*****
   33    34     0     0     0
SMALL
NO_CHARGES

@<TRIPOS>ATOM
      1 C1          2.7314    4.3108   -0.0063 C.2       1 <0>         0.0000
      2 C2          2.8966    3.6630    1.1901 C.2       1 <0>         0.0000
      3 C3          1.5798    2.4756   -0.4857 C.2       1 <0>         0.0000
      4 C4          0.3342    0.3813   -0.8981 C.2       1 <0>         0.0000
      5 C5          0.3523   -0.6218   -3.2475 C.3       1 <0>         0.0000
      6 C6         -1.0956   -1.6420   -1.4456 C.3       1 <0>         0.0000
      7 C7          1.3544   -1.7535   -3.0092 C.3       1 <0>         0.0000
      8 C8         -0.0593   -2.7636   -1.3161 C.3       1 <0>         0.0000
      9 C9         -0.4828   -0.3342   -1.9763 C.3       1 <0>         0.0000
     10 C10         3.2685    5.6588   -0.3941 C.3       1 <0>         0.0000
     11 C11         3.6326    4.0852    2.4284 C.3       1 <0>         0.0000
     12 N1          1.9801    3.6245   -0.9533 N.2       1 <0>         0.0000
     13 N2          0.6283   -2.9610   -2.6026 N.3       1 <0>         0.0000
     14 N3          0.8100    1.6224   -1.2701 N.am      1 <0>         0.0000
     15 O1          0.5549   -0.0694    0.2230 O.2       1 <0>         0.0000
     16 S1          2.0725    2.1084    1.1499 S.3       1 <0>         0.0000
     17 H1          0.8783    0.2736   -3.5972 H         1 <0>         0.0000
     18 H2         -0.3339   -0.9287   -4.0442 H         1 <0>         0.0000
     19 H3         -1.8715   -1.9608   -2.1506 H         1 <0>         0.0000
     20 H4         -1.5689   -1.4672   -0.4757 H         1 <0>         0.0000
     21 H5          1.8955   -1.9646   -3.9376 H         1 <0>         0.0000
     22 H6          2.0997   -1.4309   -2.2579 H         1 <0>         0.0000
     23 H7          0.6370   -2.5169   -0.5005 H         1 <0>         0.0000
     24 H8         -0.5688   -3.6965   -1.0524 H         1 <0>         0.0000
     25 H9         -1.2962    0.3526   -2.2481 H         1 <0>         0.0000
     26 H10         3.9199    5.5717   -1.2704 H         1 <0>         0.0000
     27 H11         2.4481    6.3322   -0.6646 H         1 <0>         0.0000
     28 H12         3.8399    6.1214    0.4130 H         1 <0>         0.0000
     29 H13         2.9663    4.1376    3.2970 H         1 <0>         0.0000
     30 H14         4.4422    3.3890    2.6756 H         1 <0>         0.0000
     31 H15         4.0768    5.0738    2.2927 H         1 <0>         0.0000
     32 H16         1.2848   -3.7334   -2.5146 H         1 <0>         0.0000
     33 H17         0.6078    1.9903   -2.1929 H         1 <0>         0.0000
@<TRIPOS>BOND
     1    1    2 2
     2    1   10 1
     3    1   12 1
     4    2   11 1
     5    2   16 1
     6    3   12 2
     7    3   14 1
     8    3   16 1
     9    4    9 1
    10    4   14 am
    11    4   15 2
    12    5    7 1
    13    5    9 1
    14    5   17 1
    15    5   18 1
    16    6    8 1
    17    6    9 1
    18    6   19 1
    19    6   20 1
    20    7   13 1
    21    7   21 1
    22    7   22 1
    23    8   13 1
    24    8   23 1
    25    8   24 1
    26    9   25 1
    27   10   26 1
    28   10   27 1
    29   10   28 1
    30   11   29 1
    31   11   30 1
    32   11   31 1
    33   13   32 1
    34   14   33 1
