@<TRIPOS>MOLECULE
*****
   22    22     0     0     0
SMALL
NO_CHARGES

@<TRIPOS>ATOM
      1 C1          2.4178   -0.3479    0.1227 C.ar      1 <0>         0.0000
      2 C2          1.1298    0.0084    0.5337 C.ar      1 <0>         0.0000
      3 C3          1.3273   -1.4825    2.4362 C.ar      1 <0>         0.0000
      4 C4          3.1743   -1.2697    0.8570 C.ar      1 <0>         0.0000
      5 C5          0.5939   -0.5592    1.6866 C.ar      1 <0>         0.0000
      6 C6          2.6076   -1.8325    2.0173 C.ar      1 <0>         0.0000
      7 C7          6.3023   -1.9505   -0.8857 C.2       1 <0>         0.0000
      8 C8          4.9765   -1.2583   -0.7287 C.3       1 <0>         0.0000
      9 N1          7.2585   -1.2400   -1.3826 N.2       1 <0>         0.0000
     10 N2          6.3488   -3.2939   -0.5878 N.pl3     1 <0>         0.0000
     11 O1          8.4188   -2.0557   -1.5450 O.3       1 <0>         0.0000
     12 O2          4.4375   -1.6635    0.5369 O.3       1 <0>         0.0000
     13 Cl1        -1.0210   -0.1174    2.2121 Cl        1 <0>         0.0000
     14 Cl2         3.5271   -2.9970    2.9436 Cl        1 <0>         0.0000
     15 H1          2.8267    0.1068   -0.7721 H         1 <0>         0.0000
     16 H2          0.5534    0.7250   -0.0420 H         1 <0>         0.0000
     17 H3          0.9091   -1.9276    3.3323 H         1 <0>         0.0000
     18 H4          4.2922   -1.5683   -1.5292 H         1 <0>         0.0000
     19 H5          5.1297   -0.1768   -0.7725 H         1 <0>         0.0000
     20 H6          7.2871   -3.6726   -0.5227 H         1 <0>         0.0000
     21 H7          5.7226   -3.5793    0.1572 H         1 <0>         0.0000
     22 H8          9.0751   -1.4187   -1.8674 H         1 <0>         0.0000
@<TRIPOS>BOND
     1    1    2 ar
     2    1    4 ar
     3    1   15 1
     4    2    5 ar
     5    2   16 1
     6    3    5 ar
     7    3    6 ar
     8    3   17 1
     9    4    6 ar
    10    4   12 1
    11    5   13 1
    12    6   14 1
    13    7    8 1
    14    7    9 2
    15    7   10 1
    16    8   12 1
    17    8   18 1
    18    8   19 1
    19    9   11 1
    20   10   20 1
    21   10   21 1
    22   11   22 1
