@<TRIPOS>MOLECULE
*****
   20    21     0     0     0
SMALL
NO_CHARGES

@<TRIPOS>ATOM
      1 C1          1.7953   -0.9646   -0.1782 C.ar      1 <0>         0.0000
      2 C2          0.6703   -0.7920    0.6295 C.ar      1 <0>         0.0000
      3 C3          3.1482   -1.3871    1.8017 C.ar      1 <0>         0.0000
      4 C4          0.1813   -3.1051    6.5962 C.2       1 <0>         0.0000
      5 C5         -0.2998   -3.9580    5.6286 C.2       1 <0>         0.0000
      6 C6          2.0153   -1.2479    2.6189 C.ar      1 <0>         0.0000
      7 C7          3.0161   -1.2580    0.4273 C.ar      1 <0>         0.0000
      8 C8          0.7965   -0.9376    2.0075 C.ar      1 <0>         0.0000
      9 C9          1.2378   -2.2305    4.8659 C.2       1 <0>         0.0000
     10 C10         2.1958   -1.3753    4.1071 C.2       1 <0>         0.0000
     11 N1          1.0519   -2.1468    6.1597 N.2       1 <0>         0.0000
     12 O1          3.1447   -0.8463    4.6635 O.2       1 <0>         0.0000
     13 F1          4.1105   -1.4167   -0.3564 F         1 <0>         0.0000
     14 F2         -0.3011   -0.7256    2.7750 F         1 <0>         0.0000
     15 S1          0.3470   -3.5355    4.0917 S.3       1 <0>         0.0000
     16 H1          1.7369   -0.8649   -1.2574 H         1 <0>         0.0000
     17 H2         -0.2963   -0.5372    0.2069 H         1 <0>         0.0000
     18 H3          4.1159   -1.5951    2.2468 H         1 <0>         0.0000
     19 H4         -0.0806   -3.1514    7.6479 H         1 <0>         0.0000
     20 H5         -0.9787   -4.7929    5.7466 H         1 <0>         0.0000
@<TRIPOS>BOND
     1    1    2 ar
     2    1    7 ar
     3    1   16 1
     4    2    8 ar
     5    2   17 1
     6    3    6 ar
     7    3    7 ar
     8    3   18 1
     9    4    5 2
    10    4   11 1
    11    4   19 1
    12    5   15 1
    13    5   20 1
    14    6    8 ar
    15    6   10 1
    16    7   13 1
    17    8   14 1
    18    9   10 1
    19    9   11 2
    20    9   15 1
    21   10   12 2
