@<TRIPOS>MOLECULE
*****
   42    45     0     0     0
SMALL
NO_CHARGES

@<TRIPOS>ATOM
      1 C1         -3.3687   -9.9797    0.0758 C.ar      1 <0>         0.0000
      2 C2         -2.4273   -9.2299    0.7860 C.ar      1 <0>         0.0000
      3 C3         -4.3652   -9.3263   -0.6660 C.ar      1 <0>         0.0000
      4 C4         -2.4444   -7.8279    0.7642 C.ar      1 <0>         0.0000
      5 C5         -0.1086   -5.5659    2.4017 C.ar      1 <0>         0.0000
      6 C6         -1.9710   -4.0732    2.7286 C.ar      1 <0>         0.0000
      7 C7         -4.3886   -7.9379   -0.6995 C.ar      1 <0>         0.0000
      8 C8         -1.1772   -4.8405    1.8687 C.ar      1 <0>         0.0000
      9 C9         -3.4178   -7.1896   -0.0084 C.ar      1 <0>         0.0000
     10 C10         0.1692   -5.5517    3.7706 C.ar      1 <0>         0.0000
     11 C11        -0.6534   -4.8180    4.6532 C.ar      1 <0>         0.0000
     12 C12        -1.7082   -4.0759    4.0972 C.ar      1 <0>         0.0000
     13 C13        -2.8968   -4.6929   -0.0005 C.2       1 <0>         0.0000
     14 C14        -5.3430   -7.0024   -1.4077 C.3       1 <0>         0.0000
     15 C15         1.4438   -6.1724    6.6333 C.3       1 <0>         0.0000
     16 C16        -5.0402   -5.6419   -0.7479 C.3       1 <0>         0.0000
     17 C17         2.0200   -5.7686    5.2766 C.3       1 <0>         0.0000
     18 C18        -0.0762   -6.0076    6.6385 C.3       1 <0>         0.0000
     19 C19        -1.4301   -4.8583    0.3693 C.3       1 <0>         0.0000
     20 N1         -3.6764   -5.8078   -0.1914 N.am      1 <0>         0.0000
     21 O1         -3.3764   -3.5663   -0.1546 O.2       1 <0>         0.0000
     22 O2          1.2417   -6.3077    4.1897 O.3       1 <0>         0.0000
     23 O3         -0.4693   -4.7719    6.0108 O.3       1 <0>         0.0000
     24 Cl1        -2.7349   -3.1422    5.1656 Cl        1 <0>         0.0000
     25 H1         -3.3415  -11.0651    0.1142 H         1 <0>         0.0000
     26 H2         -1.6751   -9.7352    1.3862 H         1 <0>         0.0000
     27 H3         -5.1165   -9.9002   -1.2036 H         1 <0>         0.0000
     28 H4         -1.7417   -7.2764    1.3738 H         1 <0>         0.0000
     29 H5          0.5485   -6.1504    1.7631 H         1 <0>         0.0000
     30 H6         -2.7922   -3.4799    2.3413 H         1 <0>         0.0000
     31 H7         -5.1258   -6.9739   -2.4826 H         1 <0>         0.0000
     32 H8         -6.3902   -7.2917   -1.2888 H         1 <0>         0.0000
     33 H9          1.6853   -7.2165    6.8622 H         1 <0>         0.0000
     34 H10         1.9035   -5.5477    7.4074 H         1 <0>         0.0000
     35 H11        -5.0508   -4.7955   -1.4332 H         1 <0>         0.0000
     36 H12        -5.7367   -5.4257    0.0700 H         1 <0>         0.0000
     37 H13         2.0647   -4.6792    5.1810 H         1 <0>         0.0000
     38 H14         3.0279   -6.1673    5.1394 H         1 <0>         0.0000
     39 H15        -0.5622   -6.8426    6.1243 H         1 <0>         0.0000
     40 H16        -0.4685   -5.9554    7.6566 H         1 <0>         0.0000
     41 H17        -0.9286   -4.0005   -0.0895 H         1 <0>         0.0000
     42 H18        -1.0065   -5.7641   -0.0712 H         1 <0>         0.0000
@<TRIPOS>BOND
     1    1    2 ar
     2    1    3 ar
     3    1   25 1
     4    2    4 ar
     5    2   26 1
     6    3    7 ar
     7    3   27 1
     8    4    9 ar
     9    4   28 1
    10    5    8 ar
    11    5   10 ar
    12    5   29 1
    13    6    8 ar
    14    6   12 ar
    15    6   30 1
    16    7    9 ar
    17    7   14 1
    18    8   19 1
    19    9   20 1
    20   10   11 ar
    21   10   22 1
    22   11   12 ar
    23   11   23 1
    24   12   24 1
    25   13   19 1
    26   13   20 am
    27   13   21 2
    28   14   16 1
    29   14   31 1
    30   14   32 1
    31   15   17 1
    32   15   18 1
    33   15   33 1
    34   15   34 1
    35   16   20 1
    36   16   35 1
    37   16   36 1
    38   17   22 1
    39   17   37 1
    40   17   38 1
    41   18   23 1
    42   18   39 1
    43   18   40 1
    44   19   41 1
    45   19   42 1
