@<TRIPOS>MOLECULE
*****
   24    24     0     0     0
SMALL
NO_CHARGES

@<TRIPOS>ATOM
      1 C1          2.0217   -0.8673   -0.1164 C.ar      1 <0>         0.0000
      2 C2          0.9904   -0.1922    0.5322 C.ar      1 <0>         0.0000
      3 C3          2.9627   -1.5947    0.6157 C.ar      1 <0>         0.0000
      4 C4          0.9061   -0.2169    1.9368 C.ar      1 <0>         0.0000
      5 C5          2.8844   -1.6526    2.0145 C.ar      1 <0>         0.0000
      6 C6          1.8576   -0.9413    2.6758 C.ar      1 <0>         0.0000
      7 C7         -0.1818    0.5380    2.6231 C.2       1 <0>         0.0000
      8 C8          2.5236   -0.0826    4.7835 C.3       1 <0>         0.0000
      9 C9         -2.3395    1.4680    2.3841 C.3       1 <0>         0.0000
     10 N1          3.8213   -2.3547    2.7842 N.pl3     1 <0>         0.0000
     11 O1         -0.1422    0.9854    3.7560 O.2       1 <0>         0.0000
     12 O2          1.7905   -1.0824    4.0453 O.3       1 <0>         0.0000
     13 O3         -1.2609    0.7028    1.8131 O.3       1 <0>         0.0000
     14 H1          2.0932   -0.8360   -1.2001 H         1 <0>         0.0000
     15 H2          0.2489    0.3602   -0.0325 H         1 <0>         0.0000
     16 H3          3.7605   -2.1288    0.1036 H         1 <0>         0.0000
     17 H4          2.4585   -0.3769    5.8330 H         1 <0>         0.0000
     18 H5          2.0604    0.8966    4.6464 H         1 <0>         0.0000
     19 H6          3.5730   -0.0649    4.4671 H         1 <0>         0.0000
     20 H7         -3.1086    1.5055    1.6124 H         1 <0>         0.0000
     21 H8         -2.0012    2.4749    2.6411 H         1 <0>         0.0000
     22 H9         -2.7201    0.9788    3.2838 H         1 <0>         0.0000
     23 H10         4.2467   -3.1374    2.3008 H         1 <0>         0.0000
     24 H11         3.4474   -2.6281    3.6878 H         1 <0>         0.0000
@<TRIPOS>BOND
     1    1    2 ar
     2    1    3 ar
     3    1   14 1
     4    2    4 ar
     5    2   15 1
     6    3    5 ar
     7    3   16 1
     8    4    6 ar
     9    4    7 1
    10    5    6 ar
    11    5   10 1
    12    6   12 1
    13    7   11 2
    14    7   13 1
    15    8   12 1
    16    8   17 1
    17    8   18 1
    18    8   19 1
    19    9   13 1
    20    9   20 1
    21    9   21 1
    22    9   22 1
    23   10   23 1
    24   10   24 1
