@<TRIPOS>MOLECULE
*****
   25    26     0     0     0
SMALL
NO_CHARGES

@<TRIPOS>ATOM
      1 C1         -1.9284   -1.4074   -2.1182 C.ar      1 <0>         0.0000
      2 C2         -2.7357   -1.9115   -1.0956 C.ar      1 <0>         0.0000
      3 C3         -3.7303    0.2906   -0.8323 C.ar      1 <0>         0.0000
      4 C4         -1.9926   -0.0665   -2.5170 C.ar      1 <0>         0.0000
      5 C5         -3.6175   -1.0452   -0.4610 C.ar      1 <0>         0.0000
      6 C6         -2.9267    0.7537   -1.8670 C.ar      1 <0>         0.0000
      7 C7          0.8330    0.6055   -0.5415 C.3       1 <0>         0.0000
      8 C8          1.4813   -0.1944   -1.6701 C.3       1 <0>         0.0000
      9 C9          0.5695    1.7288   -2.5490 C.3       1 <0>         0.0000
     10 C10        -0.5471    1.5906   -3.5817 C.3       1 <0>         0.0000
     11 O1          0.0375    1.5715   -1.2390 O.3       1 <0>         0.0000
     12 O2          1.6091    0.7760   -2.7155 O.3       1 <0>         0.0000
     13 O3         -1.1938    0.3094   -3.5665 O.3       1 <0>         0.0000
     14 F1         -4.4025   -1.5100    0.5455 F         1 <0>         0.0000
     15 F2         -3.0690    2.0498   -2.2437 F         1 <0>         0.0000
     16 H1         -1.2311   -2.0553   -2.6401 H         1 <0>         0.0000
     17 H2         -2.6818   -2.9522   -0.7930 H         1 <0>         0.0000
     18 H3         -4.4321    0.9576   -0.3429 H         1 <0>         0.0000
     19 H4          0.1687    0.0094    0.0888 H         1 <0>         0.0000
     20 H5          1.5807    1.1138    0.0805 H         1 <0>         0.0000
     21 H6          2.4796   -0.5645   -1.4260 H         1 <0>         0.0000
     22 H7          0.8470   -1.0264   -1.9937 H         1 <0>         0.0000
     23 H8          1.0201    2.7268   -2.6614 H         1 <0>         0.0000
     24 H9         -0.1056    1.6630   -4.5779 H         1 <0>         0.0000
     25 H10        -1.2623    2.4043   -3.4472 H         1 <0>         0.0000
@<TRIPOS>BOND
     1    1    2 ar
     2    1    4 ar
     3    1   16 1
     4    2    5 ar
     5    2   17 1
     6    3    5 ar
     7    3    6 ar
     8    3   18 1
     9    4    6 ar
    10    4   13 1
    11    5   14 1
    12    6   15 1
    13    7    8 1
    14    7   11 1
    15    7   19 1
    16    7   20 1
    17    8   12 1
    18    8   21 1
    19    8   22 1
    20    9   10 1
    21    9   12 1
    22    9   11 1
    23    9   23 1
    24   10   13 1
    25   10   24 1
    26   10   25 1
