@<TRIPOS>MOLECULE
*****
   32    34     0     0     0
SMALL
NO_CHARGES

@<TRIPOS>ATOM
      1 C1          7.9454   -2.2369    2.4059 C.1       1 <0>         0.0000
      2 C2          0.5342   -0.3751    1.5529 C.ar      1 <0>         0.0000
      3 C3          0.5774   -0.6758    0.1881 C.ar      1 <0>         0.0000
      4 C4          1.6225   -0.7025    2.3567 C.ar      1 <0>         0.0000
      5 C5          1.7029   -1.3025   -0.3499 C.ar      1 <0>         0.0000
      6 C6          8.8494   -2.7371    7.0971 C.2       1 <0>         0.0000
      7 C7          8.4948   -2.7996    8.4122 C.2       1 <0>         0.0000
      8 C8          6.5379   -2.4428    6.9192 C.2       1 <0>         0.0000
      9 C9          2.7608   -1.3297    1.8157 C.ar      1 <0>         0.0000
     10 C10         7.7280   -2.5284    6.2054 C.2       1 <0>         0.0000
     11 C11         2.8138   -1.6442    0.4369 C.ar      1 <0>         0.0000
     12 C12         3.8658   -1.6410    2.7385 C.2       1 <0>         0.0000
     13 C13         5.7997   -2.0138    3.5000 C.2       1 <0>         0.0000
     14 C14         7.9853   -2.4458    4.7832 C.2       1 <0>         0.0000
     15 C15         7.2303   -2.2392    3.6575 C.2       1 <0>         0.0000
     16 C16         3.9866   -2.3373   -0.2184 C.3       1 <0>         0.0000
     17 N1          8.5587   -2.2458    1.4154 N.1       1 <0>         0.0000
     18 N2          5.1874   -1.7903    2.3659 N.2       1 <0>         0.0000
     19 N3          3.6646   -1.7743    4.0397 N.2       1 <0>         0.0000
     20 O1          4.9561   -2.0165    4.5529 O.3       1 <0>         0.0000
     21 S1          6.7796   -2.6090    8.6090 S.3       1 <0>         0.0000
     22 H1         -0.3347    0.1142    1.9843 H         1 <0>         0.0000
     23 H2         -0.2614   -0.4243   -0.4559 H         1 <0>         0.0000
     24 H3          1.6085   -0.4676    3.4163 H         1 <0>         0.0000
     25 H4          1.7242   -1.5390   -1.4108 H         1 <0>         0.0000
     26 H5          9.8737   -2.8328    6.7511 H         1 <0>         0.0000
     27 H6          9.1317   -2.9455    9.2750 H         1 <0>         0.0000
     28 H7          5.5417   -2.2947    6.5368 H         1 <0>         0.0000
     29 H8          9.0405   -2.5772    4.5546 H         1 <0>         0.0000
     30 H9          4.8740   -1.7000   -0.2323 H         1 <0>         0.0000
     31 H10         4.2720   -3.2472    0.3165 H         1 <0>         0.0000
     32 H11         3.7343   -2.6082   -1.2469 H         1 <0>         0.0000
@<TRIPOS>BOND
     1    1   15 1
     2    1   17 3
     3    2    3 ar
     4    2    4 ar
     5    2   22 1
     6    3    5 ar
     7    3   23 1
     8    4    9 ar
     9    4   24 1
    10    5   11 ar
    11    5   25 1
    12    6    7 2
    13    6   10 1
    14    6   26 1
    15    7   21 1
    16    7   27 1
    17    8   10 2
    18    8   21 1
    19    8   28 1
    20    9   11 ar
    21    9   12 1
    22   10   14 1
    23   11   16 1
    24   12   18 1
    25   12   19 2
    26   13   15 1
    27   13   18 2
    28   13   20 1
    29   14   15 2
    30   14   29 1
    31   16   30 1
    32   16   31 1
    33   16   32 1
    34   19   20 1
