@<TRIPOS>MOLECULE
*****
   42    45     0     0     0
SMALL
NO_CHARGES

@<TRIPOS>ATOM
      1 C1         -3.4216   -8.6340   -2.1975 C.ar      1 <0>         0.0000
      2 C2         -2.6747   -8.3409   -1.0533 C.ar      1 <0>         0.0000
      3 C3         -3.9280   -7.5896   -2.9867 C.ar      1 <0>         0.0000
      4 C4         -2.4034   -7.0171   -0.6785 C.ar      1 <0>         0.0000
      5 C5         -0.4245   -5.8886    2.1585 C.ar      1 <0>         0.0000
      6 C6         -1.9326   -4.0170    2.3198 C.ar      1 <0>         0.0000
      7 C7         -3.6608   -6.2745   -2.6282 C.ar      1 <0>         0.0000
      8 C8         -1.0546   -4.7958    1.5577 C.ar      1 <0>         0.0000
      9 C9         -2.8804   -5.9872   -1.4932 C.ar      1 <0>         0.0000
     10 C10        -0.6665   -6.2248    3.4926 C.ar      1 <0>         0.0000
     11 C11        -1.5858   -5.4736    4.2571 C.ar      1 <0>         0.0000
     12 C12        -2.1917   -4.3645    3.6442 C.ar      1 <0>         0.0000
     13 C13        -1.9090   -3.7965   -0.6202 C.2       1 <0>         0.0000
     14 C14        -4.0861   -4.9843   -3.2933 C.3       1 <0>         0.0000
     15 C15        -0.6727   -7.7355    6.3073 C.3       1 <0>         0.0000
     16 C16        -3.7780   -3.9260   -2.2148 C.3       1 <0>         0.0000
     17 C17         0.4257   -7.2572    5.3583 C.3       1 <0>         0.0000
     18 C18        -2.0234   -7.1449    5.9020 C.3       1 <0>         0.0000
     19 C19        -0.7425   -4.4438    0.1117 C.3       1 <0>         0.0000
     20 N1         -2.7739   -4.5815   -1.3435 N.am      1 <0>         0.0000
     21 O1         -2.0622   -2.5725   -0.5865 O.2       1 <0>         0.0000
     22 O2          0.0024   -7.3250    3.9822 O.3       1 <0>         0.0000
     23 O3         -1.9024   -5.7503    5.5618 O.3       1 <0>         0.0000
     24 Cl1        -3.3235   -3.4038    4.5734 Cl        1 <0>         0.0000
     25 H1         -3.6268   -9.6670   -2.4639 H         1 <0>         0.0000
     26 H2         -2.3095   -9.1486   -0.4243 H         1 <0>         0.0000
     27 H3         -4.5300   -7.8064   -3.8662 H         1 <0>         0.0000
     28 H4         -1.8765   -6.8217    0.2454 H         1 <0>         0.0000
     29 H5          0.2861   -6.5002    1.6085 H         1 <0>         0.0000
     30 H6         -2.4177   -3.1480    1.8885 H         1 <0>         0.0000
     31 H7         -3.4941   -4.8055   -4.1993 H         1 <0>         0.0000
     32 H8         -5.1406   -4.9812   -3.5808 H         1 <0>         0.0000
     33 H9         -0.7484   -8.8287    6.2937 H         1 <0>         0.0000
     34 H10        -0.4087   -7.4335    7.3271 H         1 <0>         0.0000
     35 H11        -3.3679   -2.9940   -2.6011 H         1 <0>         0.0000
     36 H12        -4.6661   -3.6855   -1.6196 H         1 <0>         0.0000
     37 H13         0.7233   -6.2304    5.5928 H         1 <0>         0.0000
     38 H14         1.3106   -7.8947    5.4229 H         1 <0>         0.0000
     39 H15        -2.4483   -7.6869    5.0513 H         1 <0>         0.0000
     40 H16        -2.7391   -7.1830    6.7263 H         1 <0>         0.0000
     41 H17         0.0523   -3.6919    0.0889 H         1 <0>         0.0000
     42 H18        -0.3783   -5.3270   -0.4186 H         1 <0>         0.0000
@<TRIPOS>BOND
     1    1    2 ar
     2    1    3 ar
     3    1   25 1
     4    2    4 ar
     5    2   26 1
     6    3    7 ar
     7    3   27 1
     8    4    9 ar
     9    4   28 1
    10    5    8 ar
    11    5   10 ar
    12    5   29 1
    13    6    8 ar
    14    6   12 ar
    15    6   30 1
    16    7    9 ar
    17    7   14 1
    18    8   19 1
    19    9   20 1
    20   10   11 ar
    21   10   22 1
    22   11   12 ar
    23   11   23 1
    24   12   24 1
    25   13   19 1
    26   13   20 am
    27   13   21 2
    28   14   16 1
    29   14   31 1
    30   14   32 1
    31   15   17 1
    32   15   18 1
    33   15   33 1
    34   15   34 1
    35   16   20 1
    36   16   35 1
    37   16   36 1
    38   17   22 1
    39   17   37 1
    40   17   38 1
    41   18   23 1
    42   18   39 1
    43   18   40 1
    44   19   41 1
    45   19   42 1
