@<TRIPOS>MOLECULE
*****
   28    29     0     0     0
SMALL
NO_CHARGES

@<TRIPOS>ATOM
      1 C1          0.7395   -2.8831   -0.6749 C.ar      1 <0>         0.0000
      2 C2          0.2206   -3.0311   -1.9664 C.ar      1 <0>         0.0000
      3 C3          0.0044   -0.5864   -0.6465 C.ar      1 <0>         0.0000
      4 C4          0.6354   -1.6608   -0.0009 C.ar      1 <0>         0.0000
      5 C5         -0.5044   -0.7071   -1.9429 C.ar      1 <0>         0.0000
      6 C6         -0.3891   -1.9492   -2.5811 C.ar      1 <0>         0.0000
      7 C7          0.8985    0.2089   -5.4060 C.3       1 <0>         0.0000
      8 C8         -0.5530    0.5752   -5.7093 C.3       1 <0>         0.0000
      9 C9          0.1678    1.8408   -3.9354 C.3       1 <0>         0.0000
     10 C10         1.1627   -1.4940    1.4066 C.3       1 <0>         0.0000
     11 C11        -0.5749    1.5978   -2.6209 C.3       1 <0>         0.0000
     12 O1          1.1362    0.8177   -4.1276 O.3       1 <0>         0.0000
     13 O2         -0.6922    1.8499   -5.0612 O.3       1 <0>         0.0000
     14 O3         -1.1738    0.2976   -2.5939 O.3       1 <0>         0.0000
     15 F1         -0.8816   -2.0931   -3.8406 F         1 <0>         0.0000
     16 H1          1.2233   -3.7290   -0.1940 H         1 <0>         0.0000
     17 H2          0.2913   -3.9723   -2.5038 H         1 <0>         0.0000
     18 H3         -0.1048    0.3598   -0.1226 H         1 <0>         0.0000
     19 H4          1.0618   -0.8664   -5.3095 H         1 <0>         0.0000
     20 H5          1.5896    0.6275   -6.1488 H         1 <0>         0.0000
     21 H6         -0.7532    0.7174   -6.7738 H         1 <0>         0.0000
     22 H7         -1.2513   -0.1490   -5.2826 H         1 <0>         0.0000
     23 H8          0.6545    2.8270   -3.8889 H         1 <0>         0.0000
     24 H9          1.8147   -0.6177    1.4872 H         1 <0>         0.0000
     25 H10         0.3435   -1.3590    2.1224 H         1 <0>         0.0000
     26 H11         1.7373   -2.3694    1.7211 H         1 <0>         0.0000
     27 H12        -1.3853    2.3262   -2.5298 H         1 <0>         0.0000
     28 H13         0.1236    1.7353   -1.7901 H         1 <0>         0.0000
@<TRIPOS>BOND
     1    1    2 ar
     2    1    4 ar
     3    1   16 1
     4    2    6 ar
     5    2   17 1
     6    3    4 ar
     7    3    5 ar
     8    3   18 1
     9    4   10 1
    10    5    6 ar
    11    5   14 1
    12    6   15 1
    13    7    8 1
    14    7   12 1
    15    7   19 1
    16    7   20 1
    17    8   13 1
    18    8   21 1
    19    8   22 1
    20    9   11 1
    21    9   13 1
    22    9   12 1
    23    9   23 1
    24   10   24 1
    25   10   25 1
    26   10   26 1
    27   11   14 1
    28   11   27 1
    29   11   28 1
