@<TRIPOS>MOLECULE
*****
   42    45     0     0     0
SMALL
NO_CHARGES

@<TRIPOS>ATOM
      1 C1         -2.1740   -0.0297    2.4392 C.ar      1 <0>         0.0000
      2 C2         -1.1803   -0.8595    1.9129 C.ar      1 <0>         0.0000
      3 C3         -3.5257   -0.3203    2.1979 C.ar      1 <0>         0.0000
      4 C4         -1.5037   -1.9938    1.1543 C.ar      1 <0>         0.0000
      5 C5         -0.7312   -4.5472   -2.1211 C.ar      1 <0>         0.0000
      6 C6          0.8035   -4.4053   -0.2681 C.ar      1 <0>         0.0000
      7 C7         -3.8579   -1.4442    1.4524 C.ar      1 <0>         0.0000
      8 C8         -0.4894   -4.6434   -0.7477 C.ar      1 <0>         0.0000
      9 C9         -2.8533   -2.2929    0.9517 C.ar      1 <0>         0.0000
     10 C10         0.2962   -4.2196   -3.0086 C.ar      1 <0>         0.0000
     11 C11         1.6037   -3.9792   -2.5370 C.ar      1 <0>         0.0000
     12 C12         1.8271   -4.0721   -1.1545 C.ar      1 <0>         0.0000
     13 C13        -2.9770   -4.5609   -0.2109 C.2       1 <0>         0.0000
     14 C14        -5.2171   -1.9726    1.0512 C.3       1 <0>         0.0000
     15 C15         1.7001   -2.7725   -5.4181 C.3       1 <0>         0.0000
     16 C16        -4.8739   -3.0040   -0.0425 C.3       1 <0>         0.0000
     17 C17         0.2331   -2.9872   -5.0651 C.3       1 <0>         0.0000
     18 C18         2.5909   -2.5698   -4.1993 C.3       1 <0>         0.0000
     19 C19        -1.5935   -5.0185    0.2277 C.3       1 <0>         0.0000
     20 N1         -3.4549   -3.3455    0.2169 N.am      1 <0>         0.0000
     21 O1         -3.6769   -5.2863   -0.9222 O.2       1 <0>         0.0000
     22 O2         -0.0034   -4.2122   -4.3503 O.3       1 <0>         0.0000
     23 O3          2.6636   -3.7416   -3.3683 O.3       1 <0>         0.0000
     24 Cl1         3.4335   -3.7628   -0.5277 Cl        1 <0>         0.0000
     25 H1         -1.9001    0.8484    3.0173 H         1 <0>         0.0000
     26 H2         -0.1329   -0.6183    2.0738 H         1 <0>         0.0000
     27 H3         -4.3062    0.3310    2.5846 H         1 <0>         0.0000
     28 H4         -0.7117   -2.5814    0.7108 H         1 <0>         0.0000
     29 H5         -1.7175   -4.7419   -2.5301 H         1 <0>         0.0000
     30 H6          1.0221   -4.4690    0.7938 H         1 <0>         0.0000
     31 H7         -5.7088   -2.4551    1.9048 H         1 <0>         0.0000
     32 H8         -5.8862   -1.1910    0.6822 H         1 <0>         0.0000
     33 H9          2.0641   -3.6290   -5.9953 H         1 <0>         0.0000
     34 H10         1.7764   -1.8829   -6.0579 H         1 <0>         0.0000
     35 H11        -5.4756   -3.9112   -0.0120 H         1 <0>         0.0000
     36 H12        -4.9611   -2.5727   -1.0462 H         1 <0>         0.0000
     37 H13        -0.1553   -2.1447   -4.4764 H         1 <0>         0.0000
     38 H14        -0.3676   -3.0767   -5.9733 H         1 <0>         0.0000
     39 H15         3.6231   -2.3813   -4.5031 H         1 <0>         0.0000
     40 H16         2.2470   -1.7188   -3.5962 H         1 <0>         0.0000
     41 H17        -1.6652   -6.1091    0.2832 H         1 <0>         0.0000
     42 H18        -1.3511   -4.6512    1.2281 H         1 <0>         0.0000
@<TRIPOS>BOND
     1    1    2 ar
     2    1    3 ar
     3    1   25 1
     4    2    4 ar
     5    2   26 1
     6    3    7 ar
     7    3   27 1
     8    4    9 ar
     9    4   28 1
    10    5    8 ar
    11    5   10 ar
    12    5   29 1
    13    6    8 ar
    14    6   12 ar
    15    6   30 1
    16    7    9 ar
    17    7   14 1
    18    8   19 1
    19    9   20 1
    20   10   11 ar
    21   10   22 1
    22   11   12 ar
    23   11   23 1
    24   12   24 1
    25   13   19 1
    26   13   20 am
    27   13   21 2
    28   14   16 1
    29   14   31 1
    30   14   32 1
    31   15   17 1
    32   15   18 1
    33   15   33 1
    34   15   34 1
    35   16   20 1
    36   16   35 1
    37   16   36 1
    38   17   22 1
    39   17   37 1
    40   17   38 1
    41   18   23 1
    42   18   39 1
    43   18   40 1
    44   19   41 1
    45   19   42 1
