@<TRIPOS>MOLECULE
*****
   18    19     0     0     0
SMALL
NO_CHARGES

@<TRIPOS>ATOM
      1 C1         -1.5246   -0.4612    2.8247 C.ar      1 <0>         0.0000
      2 C2          0.5881    0.8905    1.8661 C.ar      1 <0>         0.0000
      3 C3         -0.2066    0.1010    1.0601 C.ar      1 <0>         0.0000
      4 C4          0.2261    0.9401    3.1967 C.ar      1 <0>         0.0000
      5 C5         -1.0449   -0.3870   -1.3352 C.3       1 <0>         0.0000
      6 C6         -0.4682    0.9942   -1.3498 C.3       1 <0>         0.0000
      7 C7          0.0807   -0.0360   -0.4012 C.3       1 <0>         0.0000
      8 N1         -1.2746   -0.5912    1.5079 N.ar      1 <0>         0.0000
      9 N2         -0.8283    0.2746    3.7121 N.ar      1 <0>         0.0000
     10 O1          0.9455    1.6934    4.0861 O.3       1 <0>         0.0000
     11 Br1         2.0785    1.8478    1.2061 Br        1 <0>         0.0000
     12 H1         -2.3768   -1.0066    3.2116 H         1 <0>         0.0000
     13 H2         -2.0452   -0.5101   -0.9372 H         1 <0>         0.0000
     14 H3         -0.8144   -1.0394   -2.1689 H         1 <0>         0.0000
     15 H4          0.1527    1.2726   -2.1933 H         1 <0>         0.0000
     16 H5         -1.0812    1.7995   -0.9637 H         1 <0>         0.0000
     17 H6          1.0525   -0.4450   -0.6378 H         1 <0>         0.0000
     18 H7          0.5583    1.6163    4.9694 H         1 <0>         0.0000
@<TRIPOS>BOND
     1    1    8 ar
     2    1    9 ar
     3    1   12 1
     4    2    3 ar
     5    2    4 ar
     6    2   11 1
     7    3    7 1
     8    3    8 ar
     9    4    9 ar
    10    4   10 1
    11    5    6 1
    12    5    7 1
    13    5   13 1
    14    5   14 1
    15    6    7 1
    16    6   15 1
    17    6   16 1
    18    7   17 1
    19   10   18 1
