@<TRIPOS>MOLECULE
*****
   23    23     0     0     0
SMALL
NO_CHARGES

@<TRIPOS>ATOM
      1 C1          5.6400    2.1280    1.5330 C.ar      1 <0>         0.0000
      2 C2          4.9640    1.4010    2.5060 C.ar      1 <0>         0.0000
      3 C3          5.6390    1.6370    0.2380 C.ar      1 <0>         0.0000
      4 C4          4.3150    0.2180    2.1560 C.ar      1 <0>         0.0000
      5 C5          4.9610    0.4470   -0.0340 C.ar      1 <0>         0.0000
      6 C6          4.1250   -0.9380   -1.9020 C.2       1 <0>         0.0000
      7 C7          2.0800    0.3640   -1.2100 C.3       1 <0>         0.0000
      8 C8          1.9000   -1.9500   -2.1640 C.3       1 <0>         0.0000
      9 N1          4.3180   -0.2460    0.9070 N.ar      1 <0>         0.0000
     10 N2          4.9860   -0.0470   -1.3330 N.am      1 <0>         0.0000
     11 N3          2.7570   -0.8460   -1.7100 N.am      1 <0>         0.0000
     12 O1          4.6120   -1.7780   -2.6490 O.2       1 <0>         0.0000
     13 H1          6.1420    3.0300    1.7770 H         1 <0>         0.0000
     14 H2          4.9410    1.7400    3.5090 H         1 <0>         0.0000
     15 H3          6.1400    2.1530   -0.5380 H         1 <0>         0.0000
     16 H4          3.8000   -0.3450    2.8920 H         1 <0>         0.0000
     17 H5          2.7180    1.2200   -1.3850 H         1 <0>         0.0000
     18 H6          1.8970    0.2190   -0.1540 H         1 <0>         0.0000
     19 H7          1.1520    0.4760   -1.7540 H         1 <0>         0.0000
     20 H8          1.0040   -1.9520   -1.5590 H         1 <0>         0.0000
     21 H9          2.4450   -2.8760   -2.0310 H         1 <0>         0.0000
     22 H10         1.6770   -1.7790   -3.2080 H         1 <0>         0.0000
     23 H11         5.8780   -0.0040   -1.8260 H         1 <0>         0.0000
@<TRIPOS>BOND
     1    1    2 ar
     2    1    3 ar
     3    1   13 1
     4    2    4 ar
     5    2   14 1
     6    3    5 ar
     7    3   15 1
     8    4    9 ar
     9    4   16 1
    10    5    9 ar
    11    5   10 1
    12    6   10 am
    13    6   11 am
    14    6   12 2
    15    7   11 1
    16    7   17 1
    17    7   18 1
    18    7   19 1
    19    8   11 1
    20    8   20 1
    21    8   21 1
    22    8   22 1
    23   10   23 1
