@<TRIPOS>MOLECULE
*****
   38    40     0     0     0
SMALL
NO_CHARGES

@<TRIPOS>ATOM
      1 C1         -2.6839    3.8368    3.2932 C.ar      1 <0>         0.0000
      2 C2         -2.0108    3.1948    2.2538 C.ar      1 <0>         0.0000
      3 C3          1.9492    0.5277   -0.4024 C.ar      1 <0>         0.0000
      4 C4         -3.3391    3.0855    4.2690 C.ar      1 <0>         0.0000
      5 C5          2.5956   -0.1047   -1.4654 C.ar      1 <0>         0.0000
      6 C6         -2.6480    1.0502    3.1659 C.ar      1 <0>         0.0000
      7 C7          0.7622   -1.6585   -1.6596 C.ar      1 <0>         0.0000
      8 C8         -1.9928    1.8015    2.1902 C.ar      1 <0>         0.0000
      9 C9          0.6959    0.0793    0.0472 C.ar      1 <0>         0.0000
     10 C10         0.1003   -1.0346   -0.5909 C.ar      1 <0>         0.0000
     11 C11        -3.3211    1.6923    4.2053 C.ar      1 <0>         0.0000
     12 C12         2.0027   -1.1950   -2.0937 C.ar      1 <0>         0.0000
     13 C13        -1.2806    1.1221    1.0909 C.2       1 <0>         0.0000
     14 C14         0.0262    0.7733    1.1844 C.2       1 <0>         0.0000
     15 C15        -1.2354   -1.5699   -0.1323 C.3       1 <0>         0.0000
     16 C16        -2.1213    0.8668   -0.1428 C.3       1 <0>         0.0000
     17 C17        -2.3986   -0.6161   -0.4204 C.3       1 <0>         0.0000
     18 C18         0.8967    1.0082    2.3946 C.3       1 <0>         0.0000
     19 O1         -3.9604    0.9591    5.1574 O.3       1 <0>         0.0000
     20 O2          2.6343   -1.8095   -3.1311 O.3       1 <0>         0.0000
     21 H1         -2.6977    4.9217    3.3429 H         1 <0>         0.0000
     22 H2         -1.5048    3.7939    1.5003 H         1 <0>         0.0000
     23 H3          2.4351    1.3843    0.0588 H         1 <0>         0.0000
     24 H4         -3.8620    3.5914    5.0761 H         1 <0>         0.0000
     25 H5          3.5620    0.2629   -1.8001 H         1 <0>         0.0000
     26 H6         -2.6396   -0.0371    3.1245 H         1 <0>         0.0000
     27 H7          0.3089   -2.5129   -2.1574 H         1 <0>         0.0000
     28 H8         -1.4465   -2.5365   -0.6072 H         1 <0>         0.0000
     29 H9         -1.1790   -1.7868    0.9427 H         1 <0>         0.0000
     30 H10        -3.0817    1.3951   -0.0782 H         1 <0>         0.0000
     31 H11        -1.6183    1.3125   -1.0122 H         1 <0>         0.0000
     32 H12        -2.6934   -0.7135   -1.4733 H         1 <0>         0.0000
     33 H13        -3.2652   -0.9423    0.1686 H         1 <0>         0.0000
     34 H14         1.3893    1.9696    2.2953 H         1 <0>         0.0000
     35 H15         1.6362    0.2168    2.4586 H         1 <0>         0.0000
     36 H16         0.2761    0.9988    3.2846 H         1 <0>         0.0000
     37 H17        -4.3788    1.5448    5.8083 H         1 <0>         0.0000
     38 H18         3.4826   -1.3747   -3.3133 H         1 <0>         0.0000
@<TRIPOS>BOND
     1    1    2 ar
     2    1    4 ar
     3    1   21 1
     4    2    8 ar
     5    2   22 1
     6    3    5 ar
     7    3    9 ar
     8    3   23 1
     9    4   11 ar
    10    4   24 1
    11    5   12 ar
    12    5   25 1
    13    6    8 ar
    14    6   11 ar
    15    6   26 1
    16    7   10 ar
    17    7   12 ar
    18    7   27 1
    19    8   13 1
    20    9   10 ar
    21    9   14 1
    22   10   15 1
    23   11   19 1
    24   12   20 1
    25   13   14 2
    26   13   16 1
    27   14   18 1
    28   15   17 1
    29   15   28 1
    30   15   29 1
    31   16   17 1
    32   16   30 1
    33   16   31 1
    34   17   32 1
    35   17   33 1
    36   18   34 1
    37   18   35 1
    38   18   36 1
    39   19   37 1
    40   20   38 1
