@<TRIPOS>MOLECULE
*****
   50    50     0     0     0
SMALL
NO_CHARGES

@<TRIPOS>ATOM
      1 C1         -4.8423   -2.0810   -3.7886 C.ar      1 <0>         0.0000
      2 C2         -3.0960   -3.7485   -3.7048 C.ar      1 <0>         0.0000
      3 C3         -4.9102   -2.0821   -2.3954 C.ar      1 <0>         0.0000
      4 C4         -3.1639   -3.7496   -2.3116 C.ar      1 <0>         0.0000
      5 C5         -3.9352   -2.9142   -4.4433 C.ar      1 <0>         0.0000
      6 C6         -4.0711   -2.9164   -1.6569 C.ar      1 <0>         0.0000
      7 C7         -6.9653   -3.8117    3.6275 C.3       1 <0>         0.0000
      8 C8         -5.7615   -3.0004  -12.0939 C.3       1 <0>         0.0000
      9 C9         -6.9671   -6.5768  -10.1793 C.3       1 <0>         0.0000
     10 C10        -3.8620   -2.9127   -5.9328 C.3       1 <0>         0.0000
     11 C11        -6.8467   -3.0634    2.3094 C.3       1 <0>         0.0000
     12 C12        -5.5044   -3.3295    1.6340 C.3       1 <0>         0.0000
     13 C13        -5.9496   -3.0079  -10.6150 C.3       1 <0>         0.0000
     14 C14        -6.9773   -5.1781  -10.6951 C.3       1 <0>         0.0000
     15 C15        -4.8822   -3.5929   -7.9960 C.3       1 <0>         0.0000
     16 C16        -6.0040   -4.3846   -8.6467 C.3       1 <0>         0.0000
     17 C17        -5.3986   -2.6166    0.2934 C.3       1 <0>         0.0000
     18 N1         -4.9665   -3.6142   -6.5363 N.3       1 <0>         0.0000
     19 N2         -5.9060   -4.3782  -10.0813 N.3       1 <0>         0.0000
     20 O1         -4.1371   -2.9164   -0.2877 O.3       1 <0>         0.0000
     21 H1         -5.4999   -1.4279   -4.3559 H         1 <0>         0.0000
     22 H2         -2.3861   -4.4011   -4.2065 H         1 <0>         0.0000
     23 H3         -5.6189   -1.4305   -1.8911 H         1 <0>         0.0000
     24 H4         -2.5074   -4.4014   -1.7421 H         1 <0>         0.0000
     25 H5         -6.1614   -3.5271    4.3139 H         1 <0>         0.0000
     26 H6         -7.9232   -3.6006    4.1135 H         1 <0>         0.0000
     27 H7         -6.9009   -4.8909    3.4578 H         1 <0>         0.0000
     28 H8         -6.5586   -3.5915  -12.5684 H         1 <0>         0.0000
     29 H9         -5.8033   -1.9652  -12.4635 H         1 <0>         0.0000
     30 H10        -4.7834   -3.4389  -12.3412 H         1 <0>         0.0000
     31 H11        -7.1120   -6.5671   -9.0889 H         1 <0>         0.0000
     32 H12        -7.7800   -7.1477  -10.6519 H         1 <0>         0.0000
     33 H13        -6.0019   -7.0480  -10.4166 H         1 <0>         0.0000
     34 H14        -3.8665   -1.8874   -6.3286 H         1 <0>         0.0000
     35 H15        -2.9379   -3.3868   -6.2914 H         1 <0>         0.0000
     36 H16        -7.6642   -3.3705    1.6468 H         1 <0>         0.0000
     37 H17        -6.9647   -1.9893    2.4940 H         1 <0>         0.0000
     38 H18        -4.6815   -3.0059    2.2834 H         1 <0>         0.0000
     39 H19        -5.3615   -4.4071    1.4845 H         1 <0>         0.0000
     40 H20        -5.1491   -2.4151  -10.1483 H         1 <0>         0.0000
     41 H21        -6.9251   -2.5599  -10.3749 H         1 <0>         0.0000
     42 H22        -6.8320   -5.1964  -11.7853 H         1 <0>         0.0000
     43 H23        -7.9483   -4.7166  -10.4623 H         1 <0>         0.0000
     44 H24        -4.8996   -2.5442   -8.3093 H         1 <0>         0.0000
     45 H25        -3.9127   -4.0217   -8.2679 H         1 <0>         0.0000
     46 H26        -5.9647   -5.4303   -8.3267 H         1 <0>         0.0000
     47 H27        -6.9851   -3.9772   -8.3821 H         1 <0>         0.0000
     48 H28        -6.1852   -2.9515   -0.3903 H         1 <0>         0.0000
     49 H29        -5.4744   -1.5320    0.4204 H         1 <0>         0.0000
     50 H30        -4.9742   -4.5908   -6.2256 H         1 <0>         0.0000
@<TRIPOS>BOND
     1    1    3 ar
     2    1    5 ar
     3    1   21 1
     4    2    4 ar
     5    2    5 ar
     6    2   22 1
     7    3    6 ar
     8    3   23 1
     9    4    6 ar
    10    4   24 1
    11    5   10 1
    12    6   20 1
    13    7   11 1
    14    7   25 1
    15    7   26 1
    16    7   27 1
    17    8   13 1
    18    8   28 1
    19    8   29 1
    20    8   30 1
    21    9   14 1
    22    9   31 1
    23    9   32 1
    24    9   33 1
    25   10   18 1
    26   10   34 1
    27   10   35 1
    28   11   12 1
    29   11   36 1
    30   11   37 1
    31   12   17 1
    32   12   38 1
    33   12   39 1
    34   13   19 1
    35   13   40 1
    36   13   41 1
    37   14   19 1
    38   14   42 1
    39   14   43 1
    40   15   16 1
    41   15   18 1
    42   15   44 1
    43   15   45 1
    44   16   19 1
    45   16   46 1
    46   16   47 1
    47   17   20 1
    48   17   48 1
    49   17   49 1
    50   18   50 1
