@<TRIPOS>MOLECULE
*****
   51    55     0     0     0
SMALL
NO_CHARGES

@<TRIPOS>ATOM
      1 C1          0.7079   -8.7520    2.1154 C.ar      1 <0>         0.0000
      2 C2         -0.5834   -9.2523    2.0502 C.ar      1 <0>         0.0000
      3 C3          2.0223   -6.4833    1.8451 C.2       1 <0>         0.0000
      4 C4         -1.5210   -7.0709    1.4862 C.ar      1 <0>         0.0000
      5 C5          0.8996   -7.3779    1.8678 C.ar      1 <0>         0.0000
      6 C6         -1.6985   -8.4317    1.7384 C.ar      1 <0>         0.0000
      7 C7         -0.2204   -6.5802    1.5565 C.ar      1 <0>         0.0000
      8 C8          1.5232   -5.2427    1.5314 C.2       1 <0>         0.0000
      9 C9          2.1638   -3.9352    1.3469 C.2       1 <0>         0.0000
     10 C10        -3.6370   -9.3121    3.1321 C.2       1 <0>         0.0000
     11 C11        -5.9031   -9.4846    4.3494 C.3       1 <0>         0.0000
     12 C12        -5.3360  -10.8632    4.2947 C.3       1 <0>         0.0000
     13 C13         4.1852   -0.1519    2.4656 C.3       1 <0>         0.0000
     14 C14         4.2617   -1.9309    4.2337 C.3       1 <0>         0.0000
     15 C15         5.7032   -0.2451    2.1960 C.3       1 <0>         0.0000
     16 C16         5.7952   -1.7591    4.1750 C.3       1 <0>         0.0000
     17 C17         5.6468   -2.7199    1.8831 C.3       1 <0>         0.0000
     18 C18        -5.0118   -9.8776    3.1697 C.3       1 <0>         0.0000
     19 C19         3.6634   -1.5412    2.8724 C.3       1 <0>         0.0000
     20 C20         4.1139   -2.5511    1.7900 C.3       1 <0>         0.0000
     21 C21        -3.0779   -9.0339    1.7291 C.3       1 <0>         0.0000
     22 N1          3.4721   -3.8482    1.8422 N.am      1 <0>         0.0000
     23 N2          6.2007   -1.5835    2.7205 N.4       1 <0>         0.0000
     24 O1          1.6335   -2.9781    0.7924 O.2       1 <0>         0.0000
     25 O2         -2.9900   -9.0872    4.1452 O.2       1 <0>         0.0000
     26 O3          0.1608   -5.2805    1.3453 O.3       1 <0>         0.0000
     27 H1          1.5443   -9.4014    2.3578 H         1 <0>         0.0000
     28 H2         -0.7570  -10.3052    2.2543 H         1 <0>         0.0000
     29 H3          3.0627   -6.7408    2.0002 H         1 <0>         0.0000
     30 H4         -2.3557   -6.4175    1.2504 H         1 <0>         0.0000
     31 H5         -6.9571   -9.3410    4.1338 H         1 <0>         0.0000
     32 H6         -5.4625   -8.7889    5.0562 H         1 <0>         0.0000
     33 H7         -4.5144  -11.0946    4.9646 H         1 <0>         0.0000
     34 H8         -5.9903  -11.6908    4.0397 H         1 <0>         0.0000
     35 H9          3.9839    0.5743    3.2571 H         1 <0>         0.0000
     36 H10         3.6745    0.1966    1.5654 H         1 <0>         0.0000
     37 H11         4.0014   -2.9620    4.4873 H         1 <0>         0.0000
     38 H12         3.8550   -1.3004    5.0274 H         1 <0>         0.0000
     39 H13         5.9495   -0.2195    1.1328 H         1 <0>         0.0000
     40 H14         6.2791    0.5297    2.7048 H         1 <0>         0.0000
     41 H15         6.1435   -0.8687    4.7016 H         1 <0>         0.0000
     42 H16         6.3415   -2.6230    4.5579 H         1 <0>         0.0000
     43 H17         5.9357   -3.6469    2.3833 H         1 <0>         0.0000
     44 H18         6.1340   -2.6865    0.9073 H         1 <0>         0.0000
     45 H19        -5.4977  -10.0401    2.2121 H         1 <0>         0.0000
     46 H20         2.5739   -1.5365    2.9119 H         1 <0>         0.0000
     47 H21         3.8487   -2.1284    0.8193 H         1 <0>         0.0000
     48 H22        -3.7916   -8.3845    1.2089 H         1 <0>         0.0000
     49 H23        -3.0880   -9.9857    1.1820 H         1 <0>         0.0000
     50 H24         3.7155   -4.4789    2.5969 H         1 <0>         0.0000
     51 H25         7.2221   -1.5995    2.6600 H         1 <0>         0.0000
@<TRIPOS>BOND
     1    1    2 ar
     2    1    5 ar
     3    1   27 1
     4    2    6 ar
     5    2   28 1
     6    3    5 1
     7    3    8 2
     8    3   29 1
     9    4    6 ar
    10    4    7 ar
    11    4   30 1
    12    5    7 ar
    13    6   21 1
    14    7   26 1
    15    8    9 1
    16    8   26 1
    17    9   22 am
    18    9   24 2
    19   10   18 1
    20   10   21 1
    21   10   25 2
    22   11   12 1
    23   11   18 1
    24   11   31 1
    25   11   32 1
    26   12   18 1
    27   12   33 1
    28   12   34 1
    29   13   15 1
    30   13   19 1
    31   13   35 1
    32   13   36 1
    33   14   16 1
    34   14   19 1
    35   14   37 1
    36   14   38 1
    37   15   23 1
    38   15   39 1
    39   15   40 1
    40   16   23 1
    41   16   41 1
    42   16   42 1
    43   17   20 1
    44   17   23 1
    45   17   43 1
    46   17   44 1
    47   18   45 1
    48   19   20 1
    49   19   46 1
    50   20   22 1
    51   20   47 1
    52   21   48 1
    53   21   49 1
    54   22   50 1
    55   23   51 1
