@<TRIPOS>MOLECULE
*****
   51    55     0     0     0
SMALL
NO_CHARGES

@<TRIPOS>ATOM
      1 C1          2.3731   -8.3984    2.6290 C.ar      1 <0>         0.0000
      2 C2          1.3104   -9.2582    2.3763 C.ar      1 <0>         0.0000
      3 C3          3.0186   -5.8537    2.4439 C.2       1 <0>         0.0000
      4 C4         -0.0914   -7.4532    1.5202 C.ar      1 <0>         0.0000
      5 C5          2.2067   -7.0343    2.3286 C.ar      1 <0>         0.0000
      6 C6          0.0850   -8.8078    1.8262 C.ar      1 <0>         0.0000
      7 C7          0.9764   -6.6079    1.7847 C.ar      1 <0>         0.0000
      8 C8          2.2566   -4.8173    1.9841 C.2       1 <0>         0.0000
      9 C9          2.5543   -3.3916    1.8672 C.2       1 <0>         0.0000
     10 C10        -2.3341   -9.4901    2.3525 C.2       1 <0>         0.0000
     11 C11        -4.7973  -10.2534    2.4497 C.3       1 <0>         0.0000
     12 C12        -4.1380  -10.7478    3.6925 C.3       1 <0>         0.0000
     13 C13         0.9592    0.8577   -0.0456 C.3       1 <0>         0.0000
     14 C14        -0.4143   -0.2891    1.7183 C.3       1 <0>         0.0000
     15 C15         1.7551    1.6468    1.0183 C.3       1 <0>         0.0000
     16 C16         0.2464    0.6633    2.7392 C.3       1 <0>         0.0000
     17 C17         2.4161   -0.4443    2.2073 C.3       1 <0>         0.0000
     18 C18        -3.3108  -10.6089    2.4097 C.3       1 <0>         0.0000
     19 C19         0.5466   -0.5059    0.5354 C.3       1 <0>         0.0000
     20 C20         1.8144   -1.2351    1.0151 C.3       1 <0>         0.0000
     21 C21        -1.0325   -9.7910    1.5939 C.3       1 <0>         0.0000
     22 N1          1.5109   -2.5984    1.4178 N.am      1 <0>         0.0000
     23 N2          1.6878    0.8861    2.3263 N.4       1 <0>         0.0000
     24 O1          3.6443   -2.8963    2.1711 O.2       1 <0>         0.0000
     25 O2         -2.5619   -8.3957    2.8508 O.2       1 <0>         0.0000
     26 O3          1.0004   -5.2463    1.5704 O.3       1 <0>         0.0000
     27 H1          3.3027   -8.7706    3.0493 H         1 <0>         0.0000
     28 H2          1.4192  -10.3143    2.6088 H         1 <0>         0.0000
     29 H3          4.0305   -5.7649    2.8165 H         1 <0>         0.0000
     30 H4         -1.0270   -7.0792    1.1203 H         1 <0>         0.0000
     31 H5         -5.4673  -10.9166    1.9120 H         1 <0>         0.0000
     32 H6         -5.0260   -9.1943    2.3909 H         1 <0>         0.0000
     33 H7         -3.9202  -10.0223    4.4694 H         1 <0>         0.0000
     34 H8         -4.3404  -11.7593    4.0295 H         1 <0>         0.0000
     35 H9          0.0687    1.4166   -0.3430 H         1 <0>         0.0000
     36 H10         1.5730    0.7249   -0.9394 H         1 <0>         0.0000
     37 H11        -0.6491   -1.2421    2.1957 H         1 <0>         0.0000
     38 H12        -1.3532    0.1434    1.3657 H         1 <0>         0.0000
     39 H13         2.8132    1.7438    0.7691 H         1 <0>         0.0000
     40 H14         1.3488    2.6429    1.2020 H         1 <0>         0.0000
     41 H15        -0.2263    1.6468    2.7727 H         1 <0>         0.0000
     42 H16         0.2659    0.2514    3.7493 H         1 <0>         0.0000
     43 H17         2.2757   -0.9690    3.1509 H         1 <0>         0.0000
     44 H18         3.4765   -0.2345    2.0768 H         1 <0>         0.0000
     45 H19        -3.0312  -11.5271    1.9022 H         1 <0>         0.0000
     46 H20         0.0550   -1.0967   -0.2421 H         1 <0>         0.0000
     47 H21         2.5528   -1.2410    0.2037 H         1 <0>         0.0000
     48 H22        -1.3098   -9.8220    0.5303 H         1 <0>         0.0000
     49 H23        -0.7107  -10.8070    1.8420 H         1 <0>         0.0000
     50 H24         0.7395   -3.0741    0.9606 H         1 <0>         0.0000
     51 H25         2.1533    1.4392    3.0505 H         1 <0>         0.0000
@<TRIPOS>BOND
     1    1    2 ar
     2    1    5 ar
     3    1   27 1
     4    2    6 ar
     5    2   28 1
     6    3    5 1
     7    3    8 2
     8    3   29 1
     9    4    6 ar
    10    4    7 ar
    11    4   30 1
    12    5    7 ar
    13    6   21 1
    14    7   26 1
    15    8    9 1
    16    8   26 1
    17    9   22 am
    18    9   24 2
    19   10   18 1
    20   10   21 1
    21   10   25 2
    22   11   12 1
    23   11   18 1
    24   11   31 1
    25   11   32 1
    26   12   18 1
    27   12   33 1
    28   12   34 1
    29   13   15 1
    30   13   19 1
    31   13   35 1
    32   13   36 1
    33   14   16 1
    34   14   19 1
    35   14   37 1
    36   14   38 1
    37   15   23 1
    38   15   39 1
    39   15   40 1
    40   16   23 1
    41   16   41 1
    42   16   42 1
    43   17   20 1
    44   17   23 1
    45   17   43 1
    46   17   44 1
    47   18   45 1
    48   19   20 1
    49   19   46 1
    50   20   22 1
    51   20   47 1
    52   21   48 1
    53   21   49 1
    54   22   50 1
    55   23   51 1
