@<TRIPOS>MOLECULE
*****
   52    56     0     0     0
SMALL
NO_CHARGES

@<TRIPOS>ATOM
      1 C1         -2.5647   -0.8097   -1.1434 C.2       1 <0>         0.0000
      2 C2         -1.5740    0.2079   -0.8725 C.2       1 <0>         0.0000
      3 C3         -0.5433   -0.2748   -0.1086 C.2       1 <0>         0.0000
      4 C4         -3.7966   -0.6741   -1.8974 C.2       1 <0>         0.0000
      5 C5         -2.2514   -2.0292   -0.5773 C.2       1 <0>         0.0000
      6 C6         -4.2600   -3.0875   -1.3918 C.2       1 <0>         0.0000
      7 C7          2.5422   -1.1259   -0.2984 C.2       1 <0>         0.0000
      8 C8         -6.0419   -2.8866   -3.8799 C.3       1 <0>         0.0000
      9 C9          3.1551   -0.3267   -2.4117 C.3       1 <0>         0.0000
     10 C10         1.8900    0.4095   -1.9338 C.3       1 <0>         0.0000
     11 C11        -1.4127   -6.6378   -0.2507 C.3       1 <0>         0.0000
     12 C12        -2.2978   -6.0112   -2.0306 C.3       1 <0>         0.0000
     13 C13        -5.5969   -1.5290   -4.3692 C.3       1 <0>         0.0000
     14 C14        -1.7238   -5.2361   -0.8209 C.3       1 <0>         0.0000
     15 C15        -5.7169   -1.8054   -2.8831 C.3       1 <0>         0.0000
     16 C16        -1.6820    1.6135   -1.3990 C.3       1 <0>         0.0000
     17 C17        -4.2495   -1.3747   -5.0427 C.3       1 <0>         0.0000
     18 C18         0.7269    0.4029    0.3297 C.3       1 <0>         0.0000
     19 C19        -2.6981   -4.3988   -0.0009 C.3       1 <0>         0.0000
     20 N1         -4.5155   -1.8906   -2.0719 N.am      1 <0>         0.0000
     21 N2         -3.0595   -3.1377   -0.6683 N.am      1 <0>         0.0000
     22 N3          3.1834   -1.4597   -1.4859 N.am      1 <0>         0.0000
     23 N4          1.8782    0.0797   -0.5102 N.am      1 <0>         0.0000
     24 O1         -4.2223    0.3715   -2.3794 O.2       1 <0>         0.0000
     25 O2         -5.0149   -4.0513   -1.4257 O.2       1 <0>         0.0000
     26 O3          2.5386   -1.7778    0.7407 O.2       1 <0>         0.0000
     27 O4         -1.9295   -7.2886   -1.4386 O.3       1 <0>         0.0000
     28 S1         -0.7489   -1.9860    0.2916 S.3       1 <0>         0.0000
     29 H1         -7.0827   -3.1850   -3.9587 H         1 <0>         0.0000
     30 H2         -5.3364   -3.7052   -3.9717 H         1 <0>         0.0000
     31 H3          3.0760   -0.6555   -3.4507 H         1 <0>         0.0000
     32 H4          4.0418    0.3128   -2.3047 H         1 <0>         0.0000
     33 H5          1.9470    1.4896   -2.0948 H         1 <0>         0.0000
     34 H6          0.9921    0.0236   -2.4368 H         1 <0>         0.0000
     35 H7         -0.3533   -6.8650   -0.0876 H         1 <0>         0.0000
     36 H8         -1.9864   -6.9151    0.6439 H         1 <0>         0.0000
     37 H9         -3.3800   -5.9239   -2.1683 H         1 <0>         0.0000
     38 H10        -1.7835   -5.8505   -2.9849 H         1 <0>         0.0000
     39 H11        -6.3702   -0.8670   -4.7516 H         1 <0>         0.0000
     40 H12        -0.8269   -4.6589   -1.0574 H         1 <0>         0.0000
     41 H13        -6.5449   -1.3320   -2.3640 H         1 <0>         0.0000
     42 H14        -2.5937    2.0944   -1.0350 H         1 <0>         0.0000
     43 H15        -0.8223    2.2204   -1.1074 H         1 <0>         0.0000
     44 H16        -1.7540    1.6108   -2.4904 H         1 <0>         0.0000
     45 H17        -3.4976   -2.0272   -4.5866 H         1 <0>         0.0000
     46 H18        -3.8927   -0.3438   -4.9693 H         1 <0>         0.0000
     47 H19        -4.3201   -1.6457   -6.1020 H         1 <0>         0.0000
     48 H20         0.5873    1.4864    0.3253 H         1 <0>         0.0000
     49 H21         0.9946    0.1114    1.3476 H         1 <0>         0.0000
     50 H22        -2.2649   -4.1507    0.9740 H         1 <0>         0.0000
     51 H23        -3.6249   -4.9467    0.1694 H         1 <0>         0.0000
     52 H24         4.0097   -2.0383   -1.3990 H         1 <0>         0.0000
@<TRIPOS>BOND
     1    1    2 1
     2    1    5 2
     3    1    4 1
     4    2    3 2
     5    2   16 1
     6    3   18 1
     7    3   28 1
     8    4   20 am
     9    4   24 2
    10    5   21 1
    11    5   28 1
    12    6   21 am
    13    6   20 am
    14    6   25 2
    15    7   22 am
    16    7   23 am
    17    7   26 2
    18    8   13 1
    19    8   15 1
    20    8   29 1
    21    8   30 1
    22    9   10 1
    23    9   22 1
    24    9   31 1
    25    9   32 1
    26   10   23 1
    27   10   33 1
    28   10   34 1
    29   11   14 1
    30   11   27 1
    31   11   35 1
    32   11   36 1
    33   12   14 1
    34   12   27 1
    35   12   37 1
    36   12   38 1
    37   13   15 1
    38   13   17 1
    39   13   39 1
    40   14   19 1
    41   14   40 1
    42   15   20 1
    43   15   41 1
    44   16   42 1
    45   16   43 1
    46   16   44 1
    47   17   45 1
    48   17   46 1
    49   17   47 1
    50   18   23 1
    51   18   48 1
    52   18   49 1
    53   19   21 1
    54   19   50 1
    55   19   51 1
    56   22   52 1
