@<TRIPOS>MOLECULE
*****
   60    63     0     0     0
SMALL
NO_CHARGES

@<TRIPOS>ATOM
      1 C1          7.7086   -2.2958   -1.9600 C.1       1 <0>         0.0000
      2 C2          9.2987   -5.0698   -0.0587 C.ar      1 <0>         0.0000
      3 C3          8.3769   -5.2626    0.9762 C.ar      1 <0>         0.0000
      4 C4          9.0520   -4.0969   -1.0242 C.ar      1 <0>         0.0000
      5 C5          7.2166   -4.4899    1.0376 C.ar      1 <0>         0.0000
      6 C6          4.8676   -2.4954   -0.9409 C.ar      1 <0>         0.0000
      7 C7          5.3049   -2.1550    1.4077 C.ar      1 <0>         0.0000
      8 C8          3.7038   -1.7369   -0.8301 C.ar      1 <0>         0.0000
      9 C9          4.1393   -1.4055    1.5205 C.ar      1 <0>         0.0000
     10 C10         2.4878    1.1333   -1.4511 C.ar      1 <0>         0.0000
     11 C11        -0.2103    1.0720   -2.1287 C.ar      1 <0>         0.0000
     12 C12         7.8832   -3.3164   -0.9620 C.ar      1 <0>         0.0000
     13 C13         5.6935   -2.7079    0.1727 C.ar      1 <0>         0.0000
     14 C14         6.9378   -3.5070    0.0746 C.ar      1 <0>         0.0000
     15 C15         3.3235   -1.1742    0.3992 C.ar      1 <0>         0.0000
     16 C16         1.5945    0.3683   -0.6877 C.ar      1 <0>         0.0000
     17 C17         0.2330    0.3261   -1.0350 C.ar      1 <0>         0.0000
     18 C18         2.0396    1.8798   -2.5386 C.ar      1 <0>         0.0000
     19 C19         0.6710    1.8592   -2.8750 C.ar      1 <0>         0.0000
     20 C20         2.0837   -0.3636    0.5072 C.2       1 <0>         0.0000
     21 C21         0.2416    1.1984    2.9839 C.2       1 <0>         0.0000
     22 C22        -0.6933   -0.5380   -0.2223 C.3       1 <0>         0.0000
     23 C23        -0.9151   -0.0085    1.2015 C.3       1 <0>         0.0000
     24 C24        -1.5762   -1.0725    2.0862 C.3       1 <0>         0.0000
     25 C25         1.3515    1.8698    5.0538 C.3       1 <0>         0.0000
     26 C26         3.2623    2.1216   -4.5475 C.3       1 <0>         0.0000
     27 C27         0.2481    3.9880   -3.8370 C.3       1 <0>         0.0000
     28 N1          7.6056   -1.4809   -2.7869 N.1       1 <0>         0.0000
     29 N2          1.5160   -0.3214    1.6727 N.2       1 <0>         0.0000
     30 N3          0.3603    0.4857    1.7788 N.am      1 <0>         0.0000
     31 N4          1.3945    1.2906    3.7197 N.am      1 <0>         0.0000
     32 O1         -0.8147    1.7521    3.3000 O.2       1 <0>         0.0000
     33 O2          2.9419    2.6461   -3.2469 O.3       1 <0>         0.0000
     34 O3          0.1813    2.5542   -3.9566 O.3       1 <0>         0.0000
     35 H1         10.2020   -5.6707   -0.1110 H         1 <0>         0.0000
     36 H2          8.5578   -6.0224    1.7317 H         1 <0>         0.0000
     37 H3          9.7609   -3.9220   -1.8277 H         1 <0>         0.0000
     38 H4          6.4952   -4.6647    1.8304 H         1 <0>         0.0000
     39 H5          5.1252   -2.9340   -1.8995 H         1 <0>         0.0000
     40 H6          5.9421   -2.2892    2.2778 H         1 <0>         0.0000
     41 H7          3.0799   -1.5897   -1.7056 H         1 <0>         0.0000
     42 H8          3.8561   -0.9788    2.4766 H         1 <0>         0.0000
     43 H9          3.5458    1.1667   -1.2087 H         1 <0>         0.0000
     44 H10        -1.2572    1.0620   -2.4209 H         1 <0>         0.0000
     45 H11        -1.6695   -0.6224   -0.7079 H         1 <0>         0.0000
     46 H12        -0.2834   -1.5537   -0.1635 H         1 <0>         0.0000
     47 H13        -1.5549    0.8746    1.1585 H         1 <0>         0.0000
     48 H14        -0.9128   -1.9351    2.2099 H         1 <0>         0.0000
     49 H15        -2.5088   -1.4200    1.6277 H         1 <0>         0.0000
     50 H16        -1.8125   -0.6595    3.0689 H         1 <0>         0.0000
     51 H17         2.3722    2.0936    5.3754 H         1 <0>         0.0000
     52 H18         0.8813    1.2023    5.7882 H         1 <0>         0.0000
     53 H19         0.7777    2.7970    5.0228 H         1 <0>         0.0000
     54 H20         3.9734    2.8210   -4.9908 H         1 <0>         0.0000
     55 H21         2.3676    2.0509   -5.1745 H         1 <0>         0.0000
     56 H22         3.7309    1.1346   -4.4545 H         1 <0>         0.0000
     57 H23        -0.1884    4.3858   -4.7549 H         1 <0>         0.0000
     58 H24         1.2815    4.3292   -3.7332 H         1 <0>         0.0000
     59 H25        -0.3413    4.3218   -2.9749 H         1 <0>         0.0000
     60 H26         2.1061    0.6040    3.5017 H         1 <0>         0.0000
@<TRIPOS>BOND
     1    1   12 1
     2    1   28 3
     3    2    3 ar
     4    2    4 ar
     5    2   35 1
     6    3    5 ar
     7    3   36 1
     8    4   12 ar
     9    4   37 1
    10    5   14 ar
    11    5   38 1
    12    6    8 ar
    13    6   13 ar
    14    6   39 1
    15    7    9 ar
    16    7   13 ar
    17    7   40 1
    18    8   15 ar
    19    8   41 1
    20    9   15 ar
    21    9   42 1
    22   10   16 ar
    23   10   18 ar
    24   10   43 1
    25   11   17 ar
    26   11   19 ar
    27   11   44 1
    28   12   14 ar
    29   13   14 1
    30   15   20 1
    31   16   17 ar
    32   16   20 1
    33   17   22 1
    34   18   19 ar
    35   18   33 1
    36   19   34 1
    37   20   29 2
    38   21   30 am
    39   21   31 am
    40   21   32 2
    41   22   23 1
    42   22   45 1
    43   22   46 1
    44   23   24 1
    45   23   30 1
    46   23   47 1
    47   24   48 1
    48   24   49 1
    49   24   50 1
    50   25   31 1
    51   25   51 1
    52   25   52 1
    53   25   53 1
    54   26   33 1
    55   26   54 1
    56   26   55 1
    57   26   56 1
    58   27   34 1
    59   27   57 1
    60   27   58 1
    61   27   59 1
    62   29   30 1
    63   31   60 1
