@<TRIPOS>MOLECULE
*****
   62    64     0     0     0
SMALL
NO_CHARGES

@<TRIPOS>ATOM
      1 C1          5.0153    3.9173    6.4811 C.ar      1 <0>         0.0000
      2 C2          5.6690    6.2494    6.3717 C.ar      1 <0>         0.0000
      3 C3          6.2132    3.6201    7.1435 C.ar      1 <0>         0.0000
      4 C4          6.8590    5.9532    7.0294 C.ar      1 <0>         0.0000
      5 C5          4.7421    5.2343    6.0939 C.ar      1 <0>         0.0000
      6 C6          7.1281    4.6343    7.4135 C.ar      1 <0>         0.0000
      7 C7          0.8454    1.9745   -1.0675 C.3       1 <0>         0.0000
      8 C8         -0.5617    1.9179   -1.6730 C.3       1 <0>         0.0000
      9 C9          0.9019    1.2644    0.2804 C.3       1 <0>         0.0000
     10 C10        -1.5279    1.7126    0.6299 C.3       1 <0>         0.0000
     11 C11         0.9434    1.8077    4.8818 C.3       1 <0>         0.0000
     12 C12         1.0986    1.9515    3.3682 C.3       1 <0>         0.0000
     13 C13        -1.6482    2.4503   -0.7133 C.3       1 <0>         0.0000
     14 C14         0.4286    4.2385    3.9554 C.3       1 <0>         0.0000
     15 C15        -1.5158    3.9723   -0.5034 C.3       1 <0>         0.0000
     16 C16        -3.0446    2.1406   -1.2794 C.3       1 <0>         0.0000
     17 C17        -0.8018    4.8203    3.2556 C.3       1 <0>         0.0000
     18 C18         1.9997    6.0706    3.1605 C.3       1 <0>         0.0000
     19 C19         0.8038    6.3295    5.3653 C.3       1 <0>         0.0000
     20 C20        -0.0463    1.2530    2.6101 C.3       1 <0>         0.0000
     21 C21         2.6393    4.6373    5.1160 C.3       1 <0>         0.0000
     22 C22         1.4592    5.3242    4.3996 C.3       1 <0>         0.0000
     23 N1         -0.1424    1.8242    1.2217 N.4       1 <0>         0.0000
     24 O1          1.1003    3.3365    3.0197 O.3       1 <0>         0.0000
     25 O2          3.6007    5.6323    5.4404 O.3       1 <0>         0.0000
     26 S1         -0.1887    3.1543    5.3509 S.3       1 <0>         0.0000
     27 Cl1         8.6269    4.2590    8.2420 Cl        1 <0>         0.0000
     28 H1          4.3147    3.1133    6.2870 H         1 <0>         0.0000
     29 H2          5.4423    7.2669    6.0674 H         1 <0>         0.0000
     30 H3          6.4273    2.6007    7.4486 H         1 <0>         0.0000
     31 H4          7.5757    6.7392    7.2450 H         1 <0>         0.0000
     32 H5          1.5663    1.4862   -1.7300 H         1 <0>         0.0000
     33 H6          1.1869    3.0086   -0.9524 H         1 <0>         0.0000
     34 H7         -0.5878    2.4893   -2.6055 H         1 <0>         0.0000
     35 H8         -0.7972    0.8790   -1.9364 H         1 <0>         0.0000
     36 H9          0.6839    0.1971    0.1844 H         1 <0>         0.0000
     37 H10         1.8729    1.3842    0.7624 H         1 <0>         0.0000
     38 H11        -2.2222    2.1216    1.3678 H         1 <0>         0.0000
     39 H12        -1.7304    0.6434    0.5193 H         1 <0>         0.0000
     40 H13         0.4962    0.8505    5.1626 H         1 <0>         0.0000
     41 H14         1.9092    1.9008    5.3808 H         1 <0>         0.0000
     42 H15         2.0667    1.5549    3.0470 H         1 <0>         0.0000
     43 H16        -2.2857    4.3426    0.1810 H         1 <0>         0.0000
     44 H17        -1.6424    4.4935   -1.4564 H         1 <0>         0.0000
     45 H18        -0.5420    4.2791   -0.1061 H         1 <0>         0.0000
     46 H19        -3.8363    2.4990   -0.6129 H         1 <0>         0.0000
     47 H20        -3.1872    1.0658   -1.4333 H         1 <0>         0.0000
     48 H21        -3.1762    2.6358   -2.2458 H         1 <0>         0.0000
     49 H22        -1.4638    4.0142    2.9295 H         1 <0>         0.0000
     50 H23        -0.5123    5.4181    2.3887 H         1 <0>         0.0000
     51 H24        -1.3773    5.4548    3.9319 H         1 <0>         0.0000
     52 H25         2.7922    6.7531    3.4715 H         1 <0>         0.0000
     53 H26         2.4203    5.3771    2.4268 H         1 <0>         0.0000
     54 H27         1.2234    6.6684    2.6762 H         1 <0>         0.0000
     55 H28         1.5683    7.0062    5.7516 H         1 <0>         0.0000
     56 H29         0.3398    5.8275    6.2202 H         1 <0>         0.0000
     57 H30         0.0468    6.9385    4.8647 H         1 <0>         0.0000
     58 H31        -0.9946    1.4536    3.1120 H         1 <0>         0.0000
     59 H32         0.1038    0.1740    2.5356 H         1 <0>         0.0000
     60 H33         3.0975    3.8870    4.4588 H         1 <0>         0.0000
     61 H34         2.2904    4.1500    6.0340 H         1 <0>         0.0000
     62 H35         0.0778    2.8239    1.3598 H         1 <0>         0.0000
@<TRIPOS>BOND
     1    1    3 ar
     2    1    5 ar
     3    1   28 1
     4    2    4 ar
     5    2    5 ar
     6    2   29 1
     7    3    6 ar
     8    3   30 1
     9    4    6 ar
    10    4   31 1
    11    5   25 1
    12    6   27 1
    13    7    8 1
    14    7    9 1
    15    7   32 1
    16    7   33 1
    17    8   13 1
    18    8   34 1
    19    8   35 1
    20    9   23 1
    21    9   36 1
    22    9   37 1
    23   10   13 1
    24   10   23 1
    25   10   38 1
    26   10   39 1
    27   11   12 1
    28   11   26 1
    29   11   40 1
    30   11   41 1
    31   12   20 1
    32   12   24 1
    33   12   42 1
    34   13   15 1
    35   13   16 1
    36   14   17 1
    37   14   22 1
    38   14   24 1
    39   14   26 1
    40   15   43 1
    41   15   44 1
    42   15   45 1
    43   16   46 1
    44   16   47 1
    45   16   48 1
    46   17   49 1
    47   17   50 1
    48   17   51 1
    49   18   22 1
    50   18   52 1
    51   18   53 1
    52   18   54 1
    53   19   22 1
    54   19   55 1
    55   19   56 1
    56   19   57 1
    57   20   23 1
    58   20   58 1
    59   20   59 1
    60   21   22 1
    61   21   25 1
    62   21   60 1
    63   21   61 1
    64   23   62 1
