@<TRIPOS>MOLECULE
*****
   15    14     0     0     0
SMALL
NO_CHARGES

@<TRIPOS>ATOM
      1 C1          0.7161   -1.0931   -0.3103 C.2       1 <0>         0.0000
      2 C2          0.1244    1.3189   -0.7702 C.3       1 <0>         0.0000
      3 C3         -1.3339   -0.0678    0.7512 C.3       1 <0>         0.0000
      4 C4         -0.4241   -0.0789   -0.4785 C.3       1 <0>         0.0000
      5 N1          1.5862   -0.7977    0.7186 N.am      1 <0>         0.0000
      6 O1          0.8601   -2.0880   -1.0192 O.2       1 <0>         0.0000
      7 Cl1        -1.4112   -0.5944   -1.8943 Cl        1 <0>         0.0000
      8 H1         -0.6865    2.0465   -0.8911 H         1 <0>         0.0000
      9 H2          0.7776    1.6697    0.0371 H         1 <0>         0.0000
     10 H3          0.7128    1.3371   -1.6943 H         1 <0>         0.0000
     11 H4         -2.1518    0.6529    0.6421 H         1 <0>         0.0000
     12 H5         -1.7882   -1.0504    0.9227 H         1 <0>         0.0000
     13 H6         -0.7779    0.2112    1.6539 H         1 <0>         0.0000
     14 H7          2.3764   -1.4020    0.9182 H         1 <0>         0.0000
     15 H8          1.4814    0.0185    1.3119 H         1 <0>         0.0000
@<TRIPOS>BOND
     1    1    4 1
     2    1    5 am
     3    1    6 2
     4    2    4 1
     5    2    8 1
     6    2    9 1
     7    2   10 1
     8    3    4 1
     9    3   11 1
    10    3   12 1
    11    3   13 1
    12    4    7 1
    13    5   14 1
    14    5   15 1
