@<TRIPOS>MOLECULE
*****
   37    40     0     0     0
SMALL
NO_CHARGES

@<TRIPOS>ATOM
      1 C1          5.3397   -3.0979   -0.3332 C.ar      1 <0>         0.0000
      2 C2          5.2633   -1.8602    0.3177 C.ar      1 <0>         0.0000
      3 C3          4.2936   -4.0265   -0.2568 C.ar      1 <0>         0.0000
      4 C4          3.6741   -7.3448   -2.9011 C.ar      1 <0>         0.0000
      5 C5          4.5351   -7.8964   -3.8634 C.ar      1 <0>         0.0000
      6 C6          4.1313   -1.5214    1.0725 C.ar      1 <0>         0.0000
      7 C7          3.0843   -9.5579   -2.0501 C.ar      1 <0>         0.0000
      8 C8          3.1582   -3.6891    0.4886 C.ar      1 <0>         0.0000
      9 C9          2.9555   -8.1467   -1.9962 C.ar      1 <0>         0.0000
     10 C10         4.6470   -9.2758   -3.8891 C.ar      1 <0>         0.0000
     11 C11         3.9365  -10.0823   -3.0001 C.ar      1 <0>         0.0000
     12 C12         3.1082   -2.4519    1.1357 C.ar      1 <0>         0.0000
     13 C13         1.9012   -4.4409    0.7805 C.2       1 <0>         0.0000
     14 C14         2.0818   -7.5122   -0.9840 C.2       1 <0>         0.0000
     15 C15         5.0361  -11.4145   -4.4253 C.3       1 <0>         0.0000
     16 C16         0.8534   -8.2285   -0.4693 C.3       1 <0>         0.0000
     17 N1          1.0116   -3.8764    1.5524 N.2       1 <0>         0.0000
     18 N2          2.4257   -6.3267   -0.5933 N.2       1 <0>         0.0000
     19 N3          1.6262   -5.6892    0.3084 N.pl3     1 <0>         0.0000
     20 O1          1.7987   -2.3363    3.4780 O.2       1 <0>         0.0000
     21 O2          0.6898   -1.3149    1.4483 O.2       1 <0>         0.0000
     22 O3          5.4330  -10.0588   -4.7011 O.3       1 <0>         0.0000
     23 O4          4.2607  -11.4046   -3.2149 O.3       1 <0>         0.0000
     24 S1          1.5495   -2.3424    2.0363 S.o2      1 <0>         0.0000
     25 H1          6.2283   -3.3462   -0.9070 H         1 <0>         0.0000
     26 H2          6.0889   -1.1579    0.2422 H         1 <0>         0.0000
     27 H3          4.3566   -4.9844   -0.7548 H         1 <0>         0.0000
     28 H4          3.5376   -6.2697   -2.8620 H         1 <0>         0.0000
     29 H5          5.0801   -7.2720   -4.5641 H         1 <0>         0.0000
     30 H6          4.0588   -0.5699    1.5905 H         1 <0>         0.0000
     31 H7          2.5698  -10.2136   -1.3561 H         1 <0>         0.0000
     32 H8          4.4157  -11.7841   -5.2524 H         1 <0>         0.0000
     33 H9          5.9265  -12.0294   -4.2804 H         1 <0>         0.0000
     34 H10         0.9180   -8.4127    0.6101 H         1 <0>         0.0000
     35 H11        -0.0474   -7.6291   -0.6520 H         1 <0>         0.0000
     36 H12         0.7003   -9.1833   -0.9695 H         1 <0>         0.0000
     37 H13         0.7369   -6.0798    0.6152 H         1 <0>         0.0000
@<TRIPOS>BOND
     1    1    2 ar
     2    1    3 ar
     3    1   25 1
     4    2    6 ar
     5    2   26 1
     6    3    8 ar
     7    3   27 1
     8    4    5 ar
     9    4    9 ar
    10    4   28 1
    11    5   10 ar
    12    5   29 1
    13    6   12 ar
    14    6   30 1
    15    7    9 ar
    16    7   11 ar
    17    7   31 1
    18    8   12 ar
    19    8   13 1
    20    9   14 1
    21   10   11 ar
    22   10   22 1
    23   11   23 1
    24   12   24 1
    25   13   17 2
    26   13   19 1
    27   14   16 1
    28   14   18 2
    29   15   22 1
    30   15   23 1
    31   15   32 1
    32   15   33 1
    33   16   34 1
    34   16   35 1
    35   16   36 1
    36   17   24 1
    37   18   19 1
    38   19   37 1
    39   20   24 2
    40   21   24 2
