@<TRIPOS>MOLECULE
*****
   32    34     0     0     0
SMALL
NO_CHARGES

@<TRIPOS>ATOM
      1 C1          7.3712   -3.7516    1.7889 C.1       1 <0>         0.0000
      2 C2          8.0675    4.3569    2.8039 C.ar      1 <0>         0.0000
      3 C3          8.2092    4.6622    4.1607 C.ar      1 <0>         0.0000
      4 C4          5.4740   -6.1317    6.0833 C.2       1 <0>         0.0000
      5 C5          7.9937    3.0239    2.4083 C.ar      1 <0>         0.0000
      6 C6          8.2809    3.6313    5.0997 C.ar      1 <0>         0.0000
      7 C7          5.8404   -4.7839    5.8576 C.2       1 <0>         0.0000
      8 C8          5.6628   -6.9135    4.9635 C.2       1 <0>         0.0000
      9 C9          8.0593    1.9827    3.3529 C.ar      1 <0>         0.0000
     10 C10         8.2097    2.2805    4.7274 C.ar      1 <0>         0.0000
     11 C11         6.3071   -4.5437    4.5671 C.2       1 <0>         0.0000
     12 C12         7.9763    0.6013    2.8450 C.2       1 <0>         0.0000
     13 C13         7.5824   -1.4614    2.6984 C.2       1 <0>         0.0000
     14 C14         6.7337   -3.2572    4.1131 C.2       1 <0>         0.0000
     15 C15         7.2129   -2.8580    2.8946 C.2       1 <0>         0.0000
     16 C16         8.3146    1.2213    5.8013 C.3       1 <0>         0.0000
     17 N1          7.4915   -4.4962    0.8998 N.1       1 <0>         0.0000
     18 N2          7.5066   -0.4828    3.5638 N.2       1 <0>         0.0000
     19 N3          8.3303    0.3036    1.6057 N.2       1 <0>         0.0000
     20 O1          8.0617   -1.0743    1.5023 O.3       1 <0>         0.0000
     21 S1          6.2858   -6.0255    3.6256 S.3       1 <0>         0.0000
     22 H1          8.0105    5.1488    2.0622 H         1 <0>         0.0000
     23 H2          8.2655    5.6974    4.4876 H         1 <0>         0.0000
     24 H3          5.0892   -6.5141    7.0223 H         1 <0>         0.0000
     25 H4          7.8768    2.7705    1.3594 H         1 <0>         0.0000
     26 H5          8.4011    3.8770    6.1521 H         1 <0>         0.0000
     27 H6          5.7723   -3.9980    6.6033 H         1 <0>         0.0000
     28 H7          5.4664   -7.9733    4.8552 H         1 <0>         0.0000
     29 H8          6.6659   -2.4686    4.8598 H         1 <0>         0.0000
     30 H9          7.3620    0.7040    5.9434 H         1 <0>         0.0000
     31 H10         9.0501    0.4540    5.5450 H         1 <0>         0.0000
     32 H11         8.6082    1.6767    6.7508 H         1 <0>         0.0000
@<TRIPOS>BOND
     1    1   15 1
     2    1   17 3
     3    2    3 ar
     4    2    5 ar
     5    2   22 1
     6    3    6 ar
     7    3   23 1
     8    4    7 1
     9    4    8 2
    10    4   24 1
    11    5    9 ar
    12    5   25 1
    13    6   10 ar
    14    6   26 1
    15    7   11 2
    16    7   27 1
    17    8   21 1
    18    8   28 1
    19    9   10 ar
    20    9   12 1
    21   10   16 1
    22   11   14 1
    23   11   21 1
    24   12   18 1
    25   12   19 2
    26   13   15 1
    27   13   18 2
    28   13   20 1
    29   14   15 2
    30   14   29 1
    31   16   30 1
    32   16   31 1
    33   16   32 1
    34   19   20 1
