@<TRIPOS>MOLECULE
*****
   21    21     0     0     0
SMALL
NO_CHARGES

@<TRIPOS>ATOM
      1 C1          1.7552   -0.9108   -0.1562 C.ar      1 <0>         0.0000
      2 C2          0.6949   -0.4086    0.6043 C.ar      1 <0>         0.0000
      3 C3          2.8526   -1.4878    0.4858 C.ar      1 <0>         0.0000
      4 C4          0.7402   -0.4886    1.9977 C.ar      1 <0>         0.0000
      5 C5          2.9268   -1.5847    1.8853 C.ar      1 <0>         0.0000
      6 C6          1.8453   -1.0739    2.6214 C.ar      1 <0>         0.0000
      7 C7          3.9683   -3.7375    2.7535 C.2       1 <0>         0.0000
      8 C8          4.1219   -2.2433    2.5282 C.3       1 <0>         0.0000
      9 N1          4.9387   -4.5063    3.1139 N.2       1 <0>         0.0000
     10 N2          2.7000   -4.2978    2.6377 N.pl3     1 <0>         0.0000
     11 O1          6.1298   -3.7421    3.3232 O.3       1 <0>         0.0000
     12 Cl1         1.8490   -1.1607    4.3765 Cl        1 <0>         0.0000
     13 H1          1.7299   -0.8497   -1.2406 H         1 <0>         0.0000
     14 H2         -0.1649    0.0463    0.1203 H         1 <0>         0.0000
     15 H3          3.6801   -1.8761   -0.1040 H         1 <0>         0.0000
     16 H4         -0.0743   -0.1028    2.6025 H         1 <0>         0.0000
     17 H5          5.0112   -2.0958    1.9102 H         1 <0>         0.0000
     18 H6          4.3507   -1.7892    3.4962 H         1 <0>         0.0000
     19 H7          2.1398   -3.9267    1.8783 H         1 <0>         0.0000
     20 H8          2.7149   -5.3129    2.6592 H         1 <0>         0.0000
     21 H9          6.7600   -4.4307    3.5859 H         1 <0>         0.0000
@<TRIPOS>BOND
     1    1    2 ar
     2    1    3 ar
     3    1   13 1
     4    2    4 ar
     5    2   14 1
     6    3    5 ar
     7    3   15 1
     8    4    6 ar
     9    4   16 1
    10    5    6 ar
    11    5    8 1
    12    6   12 1
    13    7    8 1
    14    7    9 2
    15    7   10 1
    16    8   17 1
    17    8   18 1
    18    9   11 1
    19   10   19 1
    20   10   20 1
    21   11   21 1
