@<TRIPOS>MOLECULE
*****
   21    21     0     0     0
SMALL
NO_CHARGES

@<TRIPOS>ATOM
      1 C1         -1.6680    4.0000    0.5107 C.2       1 <0>         0.0000
      2 C2         -2.5381    3.7140   -0.5080 C.2       1 <0>         0.0000
      3 C3         -0.8602    2.8821    0.9120 C.2       1 <0>         0.0000
      4 C4         -1.1409    1.7555    0.1672 C.2       1 <0>         0.0000
      5 C5         -1.7699   -1.4064    1.6121 C.2       1 <0>         0.0000
      6 C6         -1.0076   -0.3105    1.5561 C.2       1 <0>         0.0000
      7 C7          0.1366    2.9646    2.0416 C.3       1 <0>         0.0000
      8 C8         -0.5729    0.3547    0.2687 C.3       1 <0>         0.0000
      9 N1          0.9034    0.4052    0.2302 N.3       1 <0>         0.0000
     10 S1         -2.3910    2.0643   -1.0095 S.3       1 <0>         0.0000
     11 H1         -1.5950    4.9815    0.9706 H         1 <0>         0.0000
     12 H2         -3.2464    4.3736   -0.9930 H         1 <0>         0.0000
     13 H3         -2.0667   -1.8462    2.5610 H         1 <0>         0.0000
     14 H4         -2.1332   -1.8942    0.7088 H         1 <0>         0.0000
     15 H5         -0.6538    0.1632    2.4703 H         1 <0>         0.0000
     16 H6         -0.3724    2.9185    3.0124 H         1 <0>         0.0000
     17 H7          0.8610    2.1511    1.9878 H         1 <0>         0.0000
     18 H8          0.6801    3.9150    2.0069 H         1 <0>         0.0000
     19 H9         -0.9921   -0.2355   -0.5621 H         1 <0>         0.0000
     20 H10         1.2014    0.8856   -0.6179 H         1 <0>         0.0000
     21 H11         1.2684   -0.5458    0.1907 H         1 <0>         0.0000
@<TRIPOS>BOND
     1    1    2 2
     2    1    3 1
     3    1   11 1
     4    2   10 1
     5    2   12 1
     6    3    4 2
     7    3    7 1
     8    4    8 1
     9    4   10 1
    10    5    6 2
    11    5   13 1
    12    5   14 1
    13    6    8 1
    14    6   15 1
    15    7   16 1
    16    7   17 1
    17    7   18 1
    18    8    9 1
    19    8   19 1
    20    9   20 1
    21    9   21 1
