@<TRIPOS>MOLECULE
*****
   25    27     0     0     0
SMALL
NO_CHARGES

@<TRIPOS>ATOM
      1 C1          0.0966   -0.3209    1.0504 C.ar      1 <0>         0.0000
      2 C2          6.0744   -1.3104    7.9482 C.ar      1 <0>         0.0000
      3 C3          1.2625    0.0439    1.7196 C.ar      1 <0>         0.0000
      4 C4          5.1731   -1.1610    6.9079 C.ar      1 <0>         0.0000
      5 C5         -0.6661   -1.3610    1.5840 C.ar      1 <0>         0.0000
      6 C6          7.1800   -0.4515    7.9613 C.ar      1 <0>         0.0000
      7 C7          1.6406   -0.6267    2.8929 C.ar      1 <0>         0.0000
      8 C8          5.4570   -0.1591    5.9643 C.ar      1 <0>         0.0000
      9 C9          0.7864   -1.6661    3.3386 C.ar      1 <0>         0.0000
     10 C10         4.5335    0.0488    4.8319 C.2       1 <0>         0.0000
     11 C11         2.8600   -0.2461    3.5941 C.2       1 <0>         0.0000
     12 N1         -0.3299   -2.0186    2.7017 N.ar      1 <0>         0.0000
     13 N2          7.4001    0.4883    7.0321 N.ar      1 <0>         0.0000
     14 N3          6.5372    0.6362    6.0303 N.ar      1 <0>         0.0000
     15 N4          3.3978   -0.7236    4.6856 N.2       1 <0>         0.0000
     16 N5          4.7052    0.9572    3.8945 N.2       1 <0>         0.0000
     17 O1          3.5901    0.7672    3.0617 O.3       1 <0>         0.0000
     18 O2          1.0858   -2.3547    4.4587 O.3       1 <0>         0.0000
     19 H1         -0.2142    0.1841    0.1419 H         1 <0>         0.0000
     20 H2          5.9384   -2.0580    8.7245 H         1 <0>         0.0000
     21 H3          1.8898    0.8462    1.3451 H         1 <0>         0.0000
     22 H4          4.2833   -1.7720    6.8001 H         1 <0>         0.0000
     23 H5         -1.5855   -1.6849    1.1001 H         1 <0>         0.0000
     24 H6          7.9329   -0.5052    8.7441 H         1 <0>         0.0000
     25 H7          0.3661   -3.0064    4.5625 H         1 <0>         0.0000
@<TRIPOS>BOND
     1    1    3 ar
     2    1    5 ar
     3    1   19 1
     4    2    4 ar
     5    2    6 ar
     6    2   20 1
     7    3    7 ar
     8    3   21 1
     9    4    8 ar
    10    4   22 1
    11    5   12 ar
    12    5   23 1
    13    6   13 ar
    14    6   24 1
    15    7    9 ar
    16    7   11 1
    17    8   10 1
    18    8   14 ar
    19    9   12 ar
    20    9   18 1
    21   10   15 1
    22   10   16 2
    23   11   15 2
    24   11   17 1
    25   13   14 ar
    26   16   17 1
    27   18   25 1
