@<TRIPOS>MOLECULE
*****
   25    26     0     0     0
SMALL
NO_CHARGES

@<TRIPOS>ATOM
      1 C1         -1.9920   -1.7463   -2.4344 C.ar      1 <0>         0.0000
      2 C2         -2.8371   -2.2381   -1.4376 C.ar      1 <0>         0.0000
      3 C3         -2.0603   -0.4145   -2.8620 C.ar      1 <0>         0.0000
      4 C4         -3.7638   -1.3876   -0.8495 C.ar      1 <0>         0.0000
      5 C5         -3.0312    0.4127   -2.2792 C.ar      1 <0>         0.0000
      6 C6         -3.8636   -0.0616   -1.2674 C.ar      1 <0>         0.0000
      7 C7          0.6836    0.3698   -0.7436 C.3       1 <0>         0.0000
      8 C8          1.3850   -0.4675   -1.8108 C.3       1 <0>         0.0000
      9 C9          0.4714    1.4062   -2.7978 C.3       1 <0>         0.0000
     10 C10        -0.5907    1.2469   -3.8826 C.3       1 <0>         0.0000
     11 O1         -0.1272    1.2630   -1.5162 O.3       1 <0>         0.0000
     12 O2          1.5206    0.4534   -2.8995 O.3       1 <0>         0.0000
     13 O3         -1.2257   -0.0417   -3.8806 O.3       1 <0>         0.0000
     14 F1         -4.5870   -1.8273    0.1272 F         1 <0>         0.0000
     15 F2         -3.1877    1.6945   -2.6714 F         1 <0>         0.0000
     16 F3         -4.7686    0.7619   -0.7133 F         1 <0>         0.0000
     17 H1         -1.2626   -2.3935   -2.9101 H         1 <0>         0.0000
     18 H2         -2.7816   -3.2710   -1.1096 H         1 <0>         0.0000
     19 H3          0.0239   -0.2107   -0.0946 H         1 <0>         0.0000
     20 H4          1.3985    0.9389   -0.1357 H         1 <0>         0.0000
     21 H5          2.3838   -0.8005   -1.5197 H         1 <0>         0.0000
     22 H6          0.7798   -1.3298   -2.1108 H         1 <0>         0.0000
     23 H7          0.9231    2.4049   -2.9022 H         1 <0>         0.0000
     24 H8         -0.1021    1.3089   -4.8569 H         1 <0>         0.0000
     25 H9         -1.3189    2.0553   -3.7951 H         1 <0>         0.0000
@<TRIPOS>BOND
     1    1    2 ar
     2    1    3 ar
     3    1   17 1
     4    2    4 ar
     5    2   18 1
     6    3    5 ar
     7    3   13 1
     8    4    6 ar
     9    4   14 1
    10    5    6 ar
    11    5   15 1
    12    6   16 1
    13    7    8 1
    14    7   11 1
    15    7   19 1
    16    7   20 1
    17    8   12 1
    18    8   21 1
    19    8   22 1
    20    9   10 1
    21    9   12 1
    22    9   11 1
    23    9   23 1
    24   10   13 1
    25   10   24 1
    26   10   25 1
