@<TRIPOS>MOLECULE
*****
   42    45     0     0     0
SMALL
NO_CHARGES

@<TRIPOS>ATOM
      1 C1         -1.5081   -0.6216   -3.7371 C.ar      1 <0>         0.0000
      2 C2         -0.5773   -1.1858   -2.8621 C.ar      1 <0>         0.0000
      3 C3         -2.8557   -1.0048   -3.6581 C.ar      1 <0>         0.0000
      4 C4         -0.9596   -2.1279   -1.8959 C.ar      1 <0>         0.0000
      5 C5         -1.4265   -3.3707    3.2730 C.ar      1 <0>         0.0000
      6 C6         -0.6195   -5.4925    2.4741 C.ar      1 <0>         0.0000
      7 C7         -3.2465   -1.9340   -2.7034 C.ar      1 <0>         0.0000
      8 C8         -1.0699   -4.1967    2.2064 C.ar      1 <0>         0.0000
      9 C9         -2.3087   -2.4896   -1.8113 C.ar      1 <0>         0.0000
     10 C10        -1.3358   -3.8134    4.5943 C.ar      1 <0>         0.0000
     11 C11        -0.8434   -5.1063    4.8774 C.ar      1 <0>         0.0000
     12 C12        -0.5044   -5.9297    3.7911 C.ar      1 <0>         0.0000
     13 C13        -2.5605   -4.0874    0.1704 C.2       1 <0>         0.0000
     14 C14        -4.6217   -2.4906   -2.4128 C.3       1 <0>         0.0000
     15 C15        -1.4106   -3.9364    7.7861 C.3       1 <0>         0.0000
     16 C16        -4.3229   -3.6913   -1.4943 C.3       1 <0>         0.0000
     17 C17        -2.3984   -3.4792    6.7126 C.3       1 <0>         0.0000
     18 C18        -0.2410   -4.6868    7.1489 C.3       1 <0>         0.0000
     19 C19        -1.2100   -3.7096    0.7851 C.3       1 <0>         0.0000
     20 N1         -2.9638   -3.4188   -0.9660 N.am      1 <0>         0.0000
     21 O1         -3.2873   -4.9421    0.6719 O.2       1 <0>         0.0000
     22 O2         -1.7160   -2.9204    5.5736 O.3       1 <0>         0.0000
     23 O3         -0.6983   -5.6113    6.1440 O.3       1 <0>         0.0000
     24 Cl1         0.1000   -7.5436    4.1089 Cl        1 <0>         0.0000
     25 H1         -1.1881    0.1013   -4.4820 H         1 <0>         0.0000
     26 H2          0.4700   -0.9037   -2.9320 H         1 <0>         0.0000
     27 H3         -3.5890   -0.5818   -4.3409 H         1 <0>         0.0000
     28 H4         -0.2020   -2.5623   -1.2585 H         1 <0>         0.0000
     29 H5         -1.8094   -2.3678    3.1040 H         1 <0>         0.0000
     30 H6         -0.3597   -6.1677    1.6652 H         1 <0>         0.0000
     31 H7         -5.2345   -1.7425   -1.8952 H         1 <0>         0.0000
     32 H8         -5.1595   -2.7894   -3.3162 H         1 <0>         0.0000
     33 H9         -1.0159   -3.0779    8.3414 H         1 <0>         0.0000
     34 H10        -1.9398   -4.5787    8.4990 H         1 <0>         0.0000
     35 H11        -5.0181   -3.8032   -0.6633 H         1 <0>         0.0000
     36 H12        -4.3080   -4.6355   -2.0495 H         1 <0>         0.0000
     37 H13        -3.0282   -4.3112    6.3824 H         1 <0>         0.0000
     38 H14        -3.0481   -2.6833    7.0848 H         1 <0>         0.0000
     39 H15         0.4721   -3.9891    6.6988 H         1 <0>         0.0000
     40 H16         0.2901   -5.2952    7.8845 H         1 <0>         0.0000
     41 H17        -1.0806   -2.6248    0.7421 H         1 <0>         0.0000
     42 H18        -0.4223   -4.1481    0.1619 H         1 <0>         0.0000
@<TRIPOS>BOND
     1    1    2 ar
     2    1    3 ar
     3    1   25 1
     4    2    4 ar
     5    2   26 1
     6    3    7 ar
     7    3   27 1
     8    4    9 ar
     9    4   28 1
    10    5    8 ar
    11    5   10 ar
    12    5   29 1
    13    6    8 ar
    14    6   12 ar
    15    6   30 1
    16    7    9 ar
    17    7   14 1
    18    8   19 1
    19    9   20 1
    20   10   11 ar
    21   10   22 1
    22   11   12 ar
    23   11   23 1
    24   12   24 1
    25   13   19 1
    26   13   20 am
    27   13   21 2
    28   14   16 1
    29   14   31 1
    30   14   32 1
    31   15   17 1
    32   15   18 1
    33   15   33 1
    34   15   34 1
    35   16   20 1
    36   16   35 1
    37   16   36 1
    38   17   22 1
    39   17   37 1
    40   17   38 1
    41   18   23 1
    42   18   39 1
    43   18   40 1
    44   19   41 1
    45   19   42 1
