@<TRIPOS>MOLECULE
*****
   23    23     0     0     0
SMALL
NO_CHARGES

@<TRIPOS>ATOM
      1 C1          3.5306   -0.2759   -0.9833 C.2       1 <0>         0.0000
      2 C2          4.6700    0.5319   -1.2974 C.2       1 <0>         0.0000
      3 C3          2.6332    0.3862   -0.1891 C.2       1 <0>         0.0000
      4 C4          4.6580    1.7875   -0.7503 C.2       1 <0>         0.0000
      5 C5          5.6676    2.8891   -0.8743 C.3       1 <0>         0.0000
      6 C6         -0.3881    0.3811    3.6758 C.3       1 <0>         0.0000
      7 C7          1.3019   -0.0882    0.3156 C.3       1 <0>         0.0000
      8 C8         -0.2324   -0.0553    2.2207 C.3       1 <0>         0.0000
      9 N1          1.0750    0.3447    1.6941 N.3       1 <0>         0.0000
     10 S1          3.1970    1.9956    0.1866 S.3       1 <0>         0.0000
     11 Br1         6.0980   -0.1161   -2.3909 Br        1 <0>         0.0000
     12 H1          3.3950   -1.2926   -1.3359 H         1 <0>         0.0000
     13 H2          5.4786    3.4996   -1.7651 H         1 <0>         0.0000
     14 H3          5.6461    3.5501   -0.0035 H         1 <0>         0.0000
     15 H4          6.6744    2.4731   -0.9644 H         1 <0>         0.0000
     16 H5          0.3595   -0.1028    4.3157 H         1 <0>         0.0000
     17 H6         -0.2624    1.4641    3.7673 H         1 <0>         0.0000
     18 H7         -1.3775    0.1097    4.0578 H         1 <0>         0.0000
     19 H8          0.4978    0.3396   -0.2977 H         1 <0>         0.0000
     20 H9          1.2500   -1.1835    0.1800 H         1 <0>         0.0000
     21 H10        -1.0008    0.4289    1.6057 H         1 <0>         0.0000
     22 H11        -0.4018   -1.1447    2.1369 H         1 <0>         0.0000
     23 H12         1.8117   -0.0379    2.2858 H         1 <0>         0.0000
@<TRIPOS>BOND
     1    1    2 1
     2    1    3 2
     3    1   12 1
     4    2    4 2
     5    2   11 1
     6    3    7 1
     7    3   10 1
     8    4    5 1
     9    4   10 1
    10    5   13 1
    11    5   14 1
    12    5   15 1
    13    6    8 1
    14    6   16 1
    15    6   17 1
    16    6   18 1
    17    7    9 1
    18    7   19 1
    19    7   20 1
    20    8    9 1
    21    8   21 1
    22    8   22 1
    23    9   23 1
