@<TRIPOS>MOLECULE
*****
   21    21     0     0     0
SMALL
NO_CHARGES

@<TRIPOS>ATOM
      1 C1          1.5995   -1.6313   -0.0977 C.ar      1 <0>         0.0000
      2 C2          0.6385   -0.9539    0.6575 C.ar      1 <0>         0.0000
      3 C3          2.8869   -1.8399    0.4059 C.ar      1 <0>         0.0000
      4 C4          2.2416   -0.6766    2.4471 C.ar      1 <0>         0.0000
      5 C5          0.9548   -0.4662    1.9317 C.ar      1 <0>         0.0000
      6 C6          3.1858   -1.3572    1.6806 C.ar      1 <0>         0.0000
      7 C7         -0.6896   -0.6611    3.8099 C.2       1 <0>         0.0000
      8 C8         -0.0891    0.2555    2.7667 C.3       1 <0>         0.0000
      9 N1         -1.7046   -1.4339    3.6339 N.2       1 <0>         0.0000
     10 N2         -0.0143   -0.7387    5.0322 N.pl3     1 <0>         0.0000
     11 O1         -2.1790   -1.3632    2.2905 O.3       1 <0>         0.0000
     12 Br1         4.9455   -1.6375    2.4006 Br        1 <0>         0.0000
     13 H1          1.3480   -2.0042   -1.0872 H         1 <0>         0.0000
     14 H2         -0.3650   -0.8138    0.2678 H         1 <0>         0.0000
     15 H3          3.6371   -2.3650   -0.1763 H         1 <0>         0.0000
     16 H4          2.4976   -0.3227    3.4406 H         1 <0>         0.0000
     17 H5          0.3687    1.1129    3.2724 H         1 <0>         0.0000
     18 H6         -0.8895    0.6274    2.1258 H         1 <0>         0.0000
     19 H7          0.2249    0.1668    5.4246 H         1 <0>         0.0000
     20 H8         -0.5050   -1.3201    5.7069 H         1 <0>         0.0000
     21 H9         -2.9336   -1.9720    2.3165 H         1 <0>         0.0000
@<TRIPOS>BOND
     1    1    2 ar
     2    1    3 ar
     3    1   13 1
     4    2    5 ar
     5    2   14 1
     6    3    6 ar
     7    3   15 1
     8    4    5 ar
     9    4    6 ar
    10    4   16 1
    11    5    8 1
    12    6   12 1
    13    7    8 1
    14    7    9 2
    15    7   10 1
    16    8   17 1
    17    8   18 1
    18    9   11 1
    19   10   19 1
    20   10   20 1
    21   11   21 1
