@<TRIPOS>MOLECULE
*****
   31    33     0     0     0
SMALL
NO_CHARGES

@<TRIPOS>ATOM
      1 C1         -2.3692   -1.2536   -3.8983 C.ar      1 <0>         0.0000
      2 C2         -2.5523   -0.1215   -3.0927 C.ar      1 <0>         0.0000
      3 C3         -1.4965   -2.2785   -3.5112 C.ar      1 <0>         0.0000
      4 C4          1.2968   -5.7065   -4.7772 C.ar      1 <0>         0.0000
      5 C5          0.7259   -7.9102   -3.9612 C.ar      1 <0>         0.0000
      6 C6         -1.8640    0.0121   -1.8783 C.ar      1 <0>         0.0000
      7 C7          0.9552   -6.0928   -6.0739 C.ar      1 <0>         0.0000
      8 C8          0.3694   -8.3044   -5.2504 C.ar      1 <0>         0.0000
      9 C9         -0.8109   -2.1469   -2.3010 C.ar      1 <0>         0.0000
     10 C10         1.1759   -6.6045   -3.6994 C.ar      1 <0>         0.0000
     11 C11        -1.0060   -1.0134   -1.5164 C.ar      1 <0>         0.0000
     12 C12         0.4823   -7.3881   -6.2996 C.ar      1 <0>         0.0000
     13 C13         0.1661   -3.0594   -1.6333 C.2       1 <0>         0.0000
     14 C14         1.5521   -6.2360   -2.3147 C.2       1 <0>         0.0000
     15 N1          0.6698   -2.6979   -0.4933 N.2       1 <0>         0.0000
     16 N2          1.2818   -5.1597   -1.6611 N.2       1 <0>         0.0000
     17 N3          0.5018   -4.2177   -2.2730 N.pl3     1 <0>         0.0000
     18 O1          1.0978   -0.1802   -0.0690 O.2       1 <0>         0.0000
     19 O2         -0.8010   -1.3318    1.1445 O.2       1 <0>         0.0000
     20 S1          0.0341   -1.1829   -0.0459 S.o2      1 <0>         0.0000
     21 Cl1         0.0415   -7.8748   -7.9221 Cl        1 <0>         0.0000
     22 H1         -2.9119   -1.3385   -4.8354 H         1 <0>         0.0000
     23 H2         -3.2348    0.6607   -3.4126 H         1 <0>         0.0000
     24 H3         -1.3731   -3.1469   -4.1540 H         1 <0>         0.0000
     25 H4          1.7051   -4.7129   -4.6141 H         1 <0>         0.0000
     26 H5          0.6450   -8.6237   -3.1450 H         1 <0>         0.0000
     27 H6         -1.9975    0.8846   -1.2458 H         1 <0>         0.0000
     28 H7          1.0661   -5.4014   -6.9032 H         1 <0>         0.0000
     29 H8          0.0126   -9.3111   -5.4431 H         1 <0>         0.0000
     30 H9          2.1166   -6.9685   -1.7393 H         1 <0>         0.0000
     31 H10        -0.0039   -4.4587   -3.1218 H         1 <0>         0.0000
@<TRIPOS>BOND
     1    1    2 ar
     2    1    3 ar
     3    1   22 1
     4    2    6 ar
     5    2   23 1
     6    3    9 ar
     7    3   24 1
     8    4    7 ar
     9    4   10 ar
    10    4   25 1
    11    5    8 ar
    12    5   10 ar
    13    5   26 1
    14    6   11 ar
    15    6   27 1
    16    7   12 ar
    17    7   28 1
    18    8   12 ar
    19    8   29 1
    20    9   11 ar
    21    9   13 1
    22   10   14 1
    23   11   20 1
    24   12   21 1
    25   13   15 2
    26   13   17 1
    27   14   16 2
    28   14   30 1
    29   15   20 1
    30   16   17 1
    31   17   31 1
    32   18   20 2
    33   19   20 2
