@<TRIPOS>MOLECULE
*****
   25    26     0     0     0
SMALL
NO_CHARGES

@<TRIPOS>ATOM
      1 C1          5.2128   -1.4843   -2.0576 C.ar      1 <0>         0.0000
      2 C2          4.1569   -1.4328   -2.9712 C.ar      1 <0>         0.0000
      3 C3          5.0805   -0.8075   -0.8457 C.ar      1 <0>         0.0000
      4 C4          1.5239   -0.3639    2.7677 C.ar      1 <0>         0.0000
      5 C5          0.3884   -0.3143    0.6540 C.ar      1 <0>         0.0000
      6 C6          3.0121   -0.7012   -2.6332 C.ar      1 <0>         0.0000
      7 C7          0.6336   -1.3583    3.1673 C.ar      1 <0>         0.0000
      8 C8          1.4004    0.1803    1.4800 C.ar      1 <0>         0.0000
      9 C9          3.8934   -0.1056   -0.5995 C.ar      1 <0>         0.0000
     10 C10        -0.4444   -1.3100    1.1730 C.ar      1 <0>         0.0000
     11 C11         3.7226    0.6201    0.7075 C.2       1 <0>         0.0000
     12 C12         2.3611    1.2477    0.9954 C.3       1 <0>         0.0000
     13 N1          2.8750   -0.0474   -1.4753 N.ar      1 <0>         0.0000
     14 N2         -0.3488   -1.8325    2.3804 N.ar      1 <0>         0.0000
     15 O1          4.6329    0.6688    1.5227 O.2       1 <0>         0.0000
     16 Br1        -1.8543   -1.9896    0.0405 Br        1 <0>         0.0000
     17 H1          6.1174   -2.0418   -2.2854 H         1 <0>         0.0000
     18 H2          4.2117   -1.9464   -3.9268 H         1 <0>         0.0000
     19 H3          5.8601   -0.8087   -0.0912 H         1 <0>         0.0000
     20 H4          2.3029   -0.0211    3.4426 H         1 <0>         0.0000
     21 H5          0.2641    0.0512   -0.3581 H         1 <0>         0.0000
     22 H6          2.1723   -0.6415   -3.3233 H         1 <0>         0.0000
     23 H7          0.7020   -1.7998    4.1595 H         1 <0>         0.0000
     24 H8          1.9688    1.7203    0.0942 H         1 <0>         0.0000
     25 H9          2.5150    1.9980    1.7739 H         1 <0>         0.0000
@<TRIPOS>BOND
     1    1    2 ar
     2    1    3 ar
     3    1   17 1
     4    2    6 ar
     5    2   18 1
     6    3    9 ar
     7    3   19 1
     8    4    7 ar
     9    4    8 ar
    10    4   20 1
    11    5    8 ar
    12    5   10 ar
    13    5   21 1
    14    6   13 ar
    15    6   22 1
    16    7   14 ar
    17    7   23 1
    18    8   12 1
    19    9   11 1
    20    9   13 ar
    21   10   14 ar
    22   10   16 1
    23   11   12 1
    24   11   15 2
    25   12   24 1
    26   12   25 1
