@<TRIPOS>MOLECULE
*****
   39    39     0     0     0
SMALL
NO_CHARGES

@<TRIPOS>ATOM
      1 C1          9.6102   -1.5341   -0.9402 C.2       1 <0>         0.0000
      2 C2          7.9699   -2.2736    0.6081 C.2       1 <0>         0.0000
      3 C3         11.3622   -1.5830   -2.6404 C.2       1 <0>         0.0000
      4 C4          7.5405   -3.0563    8.3403 C.3       1 <0>         0.0000
      5 C5         10.0060    0.4439   -2.3120 C.3       1 <0>         0.0000
      6 C6         13.0714   -3.2895   -2.8091 C.3       1 <0>         0.0000
      7 C7         12.5723   -2.3380   -0.5840 C.3       1 <0>         0.0000
      8 C8          6.7151   -2.9670    7.0521 C.3       1 <0>         0.0000
      9 C9          7.5848   -2.8673    5.7930 C.3       1 <0>         0.0000
     10 C10         6.7566   -2.7682    4.5049 C.3       1 <0>         0.0000
     11 C11         7.6423   -2.6639    3.2662 C.3       1 <0>         0.0000
     12 N1          9.6682   -2.8308   -0.7152 N.2       1 <0>         0.0000
     13 N2          8.7146   -3.2411    0.1823 N.2       1 <0>         0.0000
     14 N3         10.4630   -0.8476   -1.7773 N.am      1 <0>         0.0000
     15 N4         12.2942   -2.3451   -2.0134 N.am      1 <0>         0.0000
     16 O1         11.2786   -1.4396   -3.8566 O.2       1 <0>         0.0000
     17 O2          5.9643   -1.0754    1.8525 O.2       1 <0>         0.0000
     18 S1          8.3328   -0.6917   -0.0572 S.3       1 <0>         0.0000
     19 S2          6.5831   -2.4597    1.7640 S.o       1 <0>         0.0000
     20 H1          8.1922   -3.9377    8.3326 H         1 <0>         0.0000
     21 H2          8.1785   -2.1735    8.4629 H         1 <0>         0.0000
     22 H3          6.8954   -3.1264    9.2224 H         1 <0>         0.0000
     23 H4          9.8481    1.1423   -1.4849 H         1 <0>         0.0000
     24 H5          9.0819    0.3406   -2.8899 H         1 <0>         0.0000
     25 H6         10.7810    0.8389   -2.9656 H         1 <0>         0.0000
     26 H7         14.1336   -3.0171   -2.7977 H         1 <0>         0.0000
     27 H8         12.7123   -3.2757   -3.8362 H         1 <0>         0.0000
     28 H9         12.9603   -4.2975   -2.3933 H         1 <0>         0.0000
     29 H10        12.1404   -3.2165   -0.0944 H         1 <0>         0.0000
     30 H11        12.1660   -1.4396   -0.1211 H         1 <0>         0.0000
     31 H12        13.6584   -2.3389   -0.4408 H         1 <0>         0.0000
     32 H13         6.0505   -2.0950    7.1006 H         1 <0>         0.0000
     33 H14         6.0623   -3.8459    6.9721 H         1 <0>         0.0000
     34 H15         8.2488   -3.7407    5.7386 H         1 <0>         0.0000
     35 H16         8.2381   -1.9879    5.8723 H         1 <0>         0.0000
     36 H17         6.1050   -1.8888    4.5528 H         1 <0>         0.0000
     37 H18         6.1042   -3.6464    4.4193 H         1 <0>         0.0000
     38 H19         8.2453   -3.5620    3.0978 H         1 <0>         0.0000
     39 H20         8.2944   -1.7856    3.3036 H         1 <0>         0.0000
@<TRIPOS>BOND
     1    1   12 2
     2    1   14 1
     3    1   18 1
     4    2   13 2
     5    2   18 1
     6    2   19 1
     7    3   14 am
     8    3   15 am
     9    3   16 2
    10    4    8 1
    11    4   20 1
    12    4   21 1
    13    4   22 1
    14    5   14 1
    15    5   23 1
    16    5   24 1
    17    5   25 1
    18    6   15 1
    19    6   26 1
    20    6   27 1
    21    6   28 1
    22    7   15 1
    23    7   29 1
    24    7   30 1
    25    7   31 1
    26    8    9 1
    27    8   32 1
    28    8   33 1
    29    9   10 1
    30    9   34 1
    31    9   35 1
    32   10   11 1
    33   10   36 1
    34   10   37 1
    35   11   19 1
    36   11   38 1
    37   11   39 1
    38   12   13 1
    39   17   19 2
