@<TRIPOS>MOLECULE
*****
   35    37     0     0     0
SMALL
NO_CHARGES

@<TRIPOS>ATOM
      1 C1         -1.7856    1.1624   -4.8806 C.ar      1 <0>         0.0000
      2 C2         -1.0517    2.3376   -5.0720 C.ar      1 <0>         0.0000
      3 C3         -2.0996    0.7262   -3.5867 C.ar      1 <0>         0.0000
      4 C4         -0.9767    2.6634   -2.6893 C.ar      1 <0>         0.0000
      5 C5         -0.6349    3.1011   -3.9723 C.ar      1 <0>         0.0000
      6 C6         -1.6882    1.4747   -2.4729 C.ar      1 <0>         0.0000
      7 C7          1.0015   -1.3878   -0.9654 C.2       1 <0>         0.0000
      8 C8         -1.0959    0.0479    1.0517 C.2       1 <0>         0.0000
      9 C9          1.6595   -2.4721   -1.3871 C.2       1 <0>         0.0000
     10 C10         0.2069    4.3905   -4.1540 C.2       1 <0>         0.0000
     11 C11         1.6304   -0.1887   -0.2763 C.3       1 <0>         0.0000
     12 C12        -0.4915   -1.1454   -1.1194 C.3       1 <0>         0.0000
     13 C13         0.4440    1.7704    0.9011 C.3       1 <0>         0.0000
     14 C14         0.5832    0.9425   -0.3722 C.3       1 <0>         0.0000
     15 C15        -0.7692    0.2014   -0.4355 C.3       1 <0>         0.0000
     16 C16        -1.9535    0.9999   -1.0641 C.3       1 <0>         0.0000
     17 O1          0.5754    4.9419   -3.0787 O.co2     1 <0>         0.0000
     18 O2         -1.8604   -0.7350    1.5732 O.2       1 <0>         0.0000
     19 O3          0.4286    4.7252   -5.3485 O.co2     1 <0>         0.0000
     20 O4         -0.4147    0.9837    1.7780 O.3       1 <0>         0.0000
     21 H1         -2.1159    0.5773   -5.7380 H         1 <0>         0.0000
     22 H2         -0.7852    2.6964   -6.0624 H         1 <0>         0.0000
     23 H3         -2.6729   -0.1891   -3.4426 H         1 <0>         0.0000
     24 H4         -0.6579    3.2941   -1.8621 H         1 <0>         0.0000
     25 H5          1.1430   -3.3007   -1.8678 H         1 <0>         0.0000
     26 H6          2.7380   -2.5639   -1.2735 H         1 <0>         0.0000
     27 H7          1.8159   -0.4370    0.7779 H         1 <0>         0.0000
     28 H8          2.5914    0.0934   -0.7156 H         1 <0>         0.0000
     29 H9         -0.7418   -1.0698   -2.1821 H         1 <0>         0.0000
     30 H10        -1.0996   -1.9451   -0.6849 H         1 <0>         0.0000
     31 H11         1.3836    1.9331    1.4342 H         1 <0>         0.0000
     32 H12        -0.0395    2.7350    0.7208 H         1 <0>         0.0000
     33 H13         0.7580    1.5677   -1.2479 H         1 <0>         0.0000
     34 H14        -2.1740    1.8628   -0.4249 H         1 <0>         0.0000
     35 H15        -2.8343    0.3495   -1.0250 H         1 <0>         0.0000
@<TRIPOS>BOND
     1    1    2 ar
     2    1    3 ar
     3    1   21 1
     4    2    5 ar
     5    2   22 1
     6    3    6 ar
     7    3   23 1
     8    4    5 ar
     9    4    6 ar
    10    4   24 1
    11    5   10 1
    12    6   16 1
    13    7    9 2
    14    7   11 1
    15    7   12 1
    16    8   15 1
    17    8   18 2
    18    8   20 1
    19    9   25 1
    20    9   26 1
    21   10   17 1
    22   10   19 2
    23   11   14 1
    24   11   27 1
    25   11   28 1
    26   12   15 1
    27   12   29 1
    28   12   30 1
    29   13   14 1
    30   13   20 1
    31   13   31 1
    32   13   32 1
    33   14   15 1
    34   14   33 1
    35   15   16 1
    36   16   34 1
    37   16   35 1
