@<TRIPOS>MOLECULE
*****
   66    68     0     0     0
SMALL
NO_CHARGES

@<TRIPOS>ATOM
      1 C1         -9.9186   -1.9180    8.3112 C.1       1 <0>         0.0000
      2 C2         -7.8951   -2.9743    9.1653 C.ar      1 <0>         0.0000
      3 C3         -6.5154   -3.1655    9.1624 C.ar      1 <0>         0.0000
      4 C4         -6.2988   -1.5241    7.3892 C.ar      1 <0>         0.0000
      5 C5         -8.4903   -2.0679    8.2753 C.ar      1 <0>         0.0000
      6 C6         -7.6760   -1.3381    7.3835 C.ar      1 <0>         0.0000
      7 C7         -5.7214   -2.4446    8.2700 C.ar      1 <0>         0.0000
      8 C8         -3.5430   -2.5299    9.4435 C.2       1 <0>         0.0000
      9 C9         -3.5075   -2.9069    7.1490 C.2       1 <0>         0.0000
     10 C10         3.9356    3.2437    6.2062 C.2       1 <0>         0.0000
     11 C11         1.7656    2.5583    5.2897 C.3       1 <0>         0.0000
     12 C12         2.9325    0.9918    6.7594 C.3       1 <0>         0.0000
     13 C13         1.4560    1.4029    4.3430 C.3       1 <0>         0.0000
     14 C14         2.5948   -0.1378    5.7842 C.3       1 <0>         0.0000
     15 C15        -2.0889   -2.7534    9.0282 C.3       1 <0>         0.0000
     16 C16        -1.5528   -4.0099    9.7346 C.3       1 <0>         0.0000
     17 C17        -1.2554   -1.5117    9.3767 C.3       1 <0>         0.0000
     18 C18         7.1542    3.6777    7.9516 C.3       1 <0>         0.0000
     19 C19         5.1289    2.8761    7.1003 C.3       1 <0>         0.0000
     20 C20        -0.6574   -1.9267    5.9343 C.3       1 <0>         0.0000
     21 C21         0.4827   -2.2137    4.9545 C.3       1 <0>         0.0000
     22 C22        -1.0945   -3.1883    6.6848 C.3       1 <0>         0.0000
     23 C23         0.9411   -0.9604    4.1998 C.3       1 <0>         0.0000
     24 C24        -8.2916   -0.3440    6.4234 C.3       1 <0>         0.0000
     25 N1        -11.0780   -1.8309    8.3761 N.1       1 <0>         0.0000
     26 N2         -4.3104   -2.6224    8.2849 N.am      1 <0>         0.0000
     27 N3         -2.2261   -2.9544    7.5791 N.pl3     1 <0>         0.0000
     28 N4          2.9728    2.2708    6.0620 N.am      1 <0>         0.0000
     29 N5          1.3446    0.1400    5.0800 N.3       1 <0>         0.0000
     30 O1         -3.9497   -2.3174   10.5695 O.2       1 <0>         0.0000
     31 O2          3.8601    4.3336    5.6521 O.2       1 <0>         0.0000
     32 O3          6.0300    3.9510    7.1324 O.3       1 <0>         0.0000
     33 F1         -7.3534    0.2624    5.6604 F         1 <0>         0.0000
     34 F2         -9.1687   -0.9404    5.5839 F         1 <0>         0.0000
     35 F3         -8.9636    0.6308    7.0808 F         1 <0>         0.0000
     36 S1         -4.0702   -3.1648    5.6098 S.2       1 <0>         0.0000
     37 H1         -8.5226   -3.5310    9.8532 H         1 <0>         0.0000
     38 H2         -6.0587   -3.8654    9.8528 H         1 <0>         0.0000
     39 H3         -5.6739   -0.9620    6.7083 H         1 <0>         0.0000
     40 H4          1.9301    3.4837    4.7387 H         1 <0>         0.0000
     41 H5          0.9201    2.7048    5.9763 H         1 <0>         0.0000
     42 H6          2.1665    1.0247    7.5484 H         1 <0>         0.0000
     43 H7          3.8908    0.7779    7.2312 H         1 <0>         0.0000
     44 H8          0.5031    1.5995    3.8414 H         1 <0>         0.0000
     45 H9          2.2418    1.3503    3.5659 H         1 <0>         0.0000
     46 H10         3.4370   -0.2687    5.0766 H         1 <0>         0.0000
     47 H11         2.4940   -1.0663    6.3539 H         1 <0>         0.0000
     48 H12        -0.5019   -4.1773    9.4828 H         1 <0>         0.0000
     49 H13        -2.1265   -4.8947    9.4447 H         1 <0>         0.0000
     50 H14        -1.6327   -3.8768   10.8162 H         1 <0>         0.0000
     51 H15        -0.2092   -1.6643    9.0964 H         1 <0>         0.0000
     52 H16        -1.3068   -1.3343   10.4538 H         1 <0>         0.0000
     53 H17        -1.6311   -0.6271    8.8561 H         1 <0>         0.0000
     54 H18         7.7938    4.5619    7.9167 H         1 <0>         0.0000
     55 H19         7.7221    2.8082    7.5848 H         1 <0>         0.0000
     56 H20         6.8591    3.4882    8.9956 H         1 <0>         0.0000
     57 H21         5.6187    1.9679    6.7088 H         1 <0>         0.0000
     58 H22         4.7674    2.6382    8.1158 H         1 <0>         0.0000
     59 H23        -1.5189   -1.5296    5.3877 H         1 <0>         0.0000
     60 H24        -0.3464   -1.1545    6.6426 H         1 <0>         0.0000
     61 H25         1.3275   -2.6749    5.4819 H         1 <0>         0.0000
     62 H26         0.1563   -2.9502    4.2100 H         1 <0>         0.0000
     63 H27        -0.2723   -3.5806    7.2902 H         1 <0>         0.0000
     64 H28        -1.3857   -3.9690    5.9766 H         1 <0>         0.0000
     65 H29         1.7510   -1.2305    3.4957 H         1 <0>         0.0000
     66 H30         0.1040   -0.5984    3.5924 H         1 <0>         0.0000
@<TRIPOS>BOND
     1    1    5 1
     2    1   25 3
     3    2    3 ar
     4    2    5 ar
     5    2   37 1
     6    3    7 ar
     7    3   38 1
     8    4    6 ar
     9    4    7 ar
    10    4   39 1
    11    5    6 ar
    12    6   24 1
    13    7   26 1
    14    8   15 1
    15    8   26 am
    16    8   30 2
    17    9   26 1
    18    9   27 1
    19    9   36 2
    20   10   19 1
    21   10   28 am
    22   10   31 2
    23   11   13 1
    24   11   28 1
    25   11   40 1
    26   11   41 1
    27   12   14 1
    28   12   28 1
    29   12   42 1
    30   12   43 1
    31   13   29 1
    32   13   44 1
    33   13   45 1
    34   14   29 1
    35   14   46 1
    36   14   47 1
    37   15   16 1
    38   15   17 1
    39   15   27 1
    40   16   48 1
    41   16   49 1
    42   16   50 1
    43   17   51 1
    44   17   52 1
    45   17   53 1
    46   18   32 1
    47   18   54 1
    48   18   55 1
    49   18   56 1
    50   19   32 1
    51   19   57 1
    52   19   58 1
    53   20   21 1
    54   20   22 1
    55   20   59 1
    56   20   60 1
    57   21   23 1
    58   21   61 1
    59   21   62 1
    60   22   27 1
    61   22   63 1
    62   22   64 1
    63   23   29 1
    64   23   65 1
    65   23   66 1
    66   24   33 1
    67   24   34 1
    68   24   35 1
