@<TRIPOS>MOLECULE
*****
   40    43     0     0     0
SMALL
NO_CHARGES

@<TRIPOS>ATOM
      1 C1          2.5351    4.1179   -2.4839 C.ar      1 <0>         0.0000
      2 C2          1.5738    3.1134   -2.4480 C.ar      1 <0>         0.0000
      3 C3          3.1986    1.6423   -1.4211 C.ar      1 <0>         0.0000
      4 C4          6.0488    6.6392   -2.7217 C.2       1 <0>         0.0000
      5 C5          4.8772    5.9828   -3.0098 C.2       1 <0>         0.0000
      6 C6          3.8393    3.9010   -2.0271 C.ar      1 <0>         0.0000
      7 C7          1.9041    1.8513   -1.9206 C.ar      1 <0>         0.0000
      8 C8          4.1683    2.6493   -1.4742 C.ar      1 <0>         0.0000
      9 C9          5.9719    4.9762   -1.3619 C.2       1 <0>         0.0000
     10 C10        -0.2672    0.7619   -2.4804 C.2       1 <0>         0.0000
     11 C11        -2.2874   -3.1382    0.0386 C.2       1 <0>         0.0000
     12 C12         6.2306    3.9743   -0.2910 C.3       1 <0>         0.0000
     13 C13         1.2840   -0.4876   -1.2375 C.3       1 <0>         0.0000
     14 C14        -0.0733   -1.2044   -1.2791 C.3       1 <0>         0.0000
     15 C15        -3.6961   -3.6514   -0.1933 C.3       1 <0>         0.0000
     16 C16        -0.8033   -1.1865    0.0642 C.3       1 <0>         0.0000
     17 N1          6.7252    6.0045   -1.6946 N.2       1 <0>         0.0000
     18 N2          4.8266    4.9078   -2.1282 N.pl3     1 <0>         0.0000
     19 N3          0.9638    0.8006   -1.8414 N.am      1 <0>         0.0000
     20 N4         -2.1277   -1.7744   -0.0202 N.am      1 <0>         0.0000
     21 O1         -0.8025    1.6193   -3.1482 O.2       1 <0>         0.0000
     22 O2         -1.3479   -3.8905    0.2949 O.2       1 <0>         0.0000
     23 O3         -0.8486   -0.4553   -2.2451 O.3       1 <0>         0.0000
     24 S1          5.8094    2.2881   -0.8897 S.3       1 <0>         0.0000
     25 H1          2.2598    5.0937   -2.8714 H         1 <0>         0.0000
     26 H2          0.5774    3.3013   -2.8217 H         1 <0>         0.0000
     27 H3          3.4779    0.6926   -0.9800 H         1 <0>         0.0000
     28 H4          6.4503    7.5228   -3.2003 H         1 <0>         0.0000
     29 H5          4.1216    6.1468   -3.7629 H         1 <0>         0.0000
     30 H6          7.2918    3.9784   -0.0401 H         1 <0>         0.0000
     31 H7          5.6501    4.1817    0.6140 H         1 <0>         0.0000
     32 H8          1.6421   -0.3657   -0.2104 H         1 <0>         0.0000
     33 H9          2.0521   -1.0159   -1.8143 H         1 <0>         0.0000
     34 H10         0.0029   -2.2287   -1.6451 H         1 <0>         0.0000
     35 H11        -3.6655   -4.4264   -0.9630 H         1 <0>         0.0000
     36 H12        -4.0534   -4.1178    0.7292 H         1 <0>         0.0000
     37 H13        -4.4027   -2.8723   -0.4919 H         1 <0>         0.0000
     38 H14        -0.8912   -0.1553    0.4229 H         1 <0>         0.0000
     39 H15        -0.2246   -1.7620    0.7906 H         1 <0>         0.0000
     40 H16        -2.8606   -1.2172   -0.4392 H         1 <0>         0.0000
@<TRIPOS>BOND
     1    1    2 ar
     2    1    6 ar
     3    1   25 1
     4    2    7 ar
     5    2   26 1
     6    3    7 ar
     7    3    8 ar
     8    3   27 1
     9    4    5 2
    10    4   17 1
    11    4   28 1
    12    5   18 1
    13    5   29 1
    14    6    8 ar
    15    6   18 1
    16    7   19 1
    17    8   24 1
    18    9   12 1
    19    9   17 2
    20    9   18 1
    21   10   19 am
    22   10   21 2
    23   10   23 1
    24   11   15 1
    25   11   20 am
    26   11   22 2
    27   12   24 1
    28   12   30 1
    29   12   31 1
    30   13   14 1
    31   13   19 1
    32   13   32 1
    33   13   33 1
    34   14   16 1
    35   14   23 1
    36   14   34 1
    37   15   35 1
    38   15   36 1
    39   15   37 1
    40   16   20 1
    41   16   38 1
    42   16   39 1
    43   20   40 1
