@<TRIPOS>MOLECULE
*****
   38    39     0     0     0
SMALL
NO_CHARGES

@<TRIPOS>ATOM
      1 C1         -2.7990   -1.8976    3.3898 C.1       1 <0>         0.0000
      2 C2         -1.1730   -2.0542    1.5095 C.2       1 <0>         0.0000
      3 C3          0.6022   -1.6058   -1.5979 C.3       1 <0>         0.0000
      4 C4          0.7826    2.9032    0.6598 C.3       1 <0>         0.0000
      5 C5          1.1856   -0.1955   -1.4635 C.3       1 <0>         0.0000
      6 C6          1.6112    1.8161   -0.0202 C.3       1 <0>         0.0000
      7 C7          0.5143   -2.2978   -0.2394 C.3       1 <0>         0.0000
      8 C8         -0.5277    2.8732   -0.1331 C.3       1 <0>         0.0000
      9 C9          0.3918   -0.1606    0.9644 C.3       1 <0>         0.0000
     10 C10         0.6135    0.6775   -0.3279 C.3       1 <0>         0.0000
     11 C11        -2.9417    2.0357   -1.9303 C.3       1 <0>         0.0000
     12 C12        -1.8099   -1.1671    2.5943 C.3       1 <0>         0.0000
     13 N1         -3.5882   -2.4180    4.0653 N.1       1 <0>         0.0000
     14 N2         -0.2104   -1.4628    0.7252 N.am      1 <0>         0.0000
     15 N3         -0.5870    1.5021   -0.7389 N.pl3     1 <0>         0.0000
     16 O1         -1.5236   -3.2186    1.3617 O.2       1 <0>         0.0000
     17 O2         -2.8191    1.0273    0.5130 O.2       1 <0>         0.0000
     18 O3         -2.1324   -0.4346   -1.4378 O.2       1 <0>         0.0000
     19 S1         -2.1544    0.8780   -0.7964 S.o2      1 <0>         0.0000
     20 H1         -0.3888   -1.5719   -2.0456 H         1 <0>         0.0000
     21 H2          1.2495   -2.1979   -2.2549 H         1 <0>         0.0000
     22 H3          0.6025    2.6579    1.7105 H         1 <0>         0.0000
     23 H4          1.2570    3.8869    0.6250 H         1 <0>         0.0000
     24 H5          2.2600   -0.2908   -1.2565 H         1 <0>         0.0000
     25 H6          1.0934    0.3613   -2.4009 H         1 <0>         0.0000
     26 H7          2.0172    2.1886   -0.9669 H         1 <0>         0.0000
     27 H8          2.4485    1.4583    0.5835 H         1 <0>         0.0000
     28 H9         -0.0089   -3.2495   -0.3087 H         1 <0>         0.0000
     29 H10         1.5230   -2.4922    0.1589 H         1 <0>         0.0000
     30 H11        -1.3927    3.0644    0.5068 H         1 <0>         0.0000
     31 H12        -0.5190    3.6103   -0.9427 H         1 <0>         0.0000
     32 H13         1.3800   -0.3084    1.4272 H         1 <0>         0.0000
     33 H14        -0.2130    0.4142    1.6618 H         1 <0>         0.0000
     34 H15        -3.9704    1.6862   -2.0348 H         1 <0>         0.0000
     35 H16        -2.9292    3.0412   -1.5110 H         1 <0>         0.0000
     36 H17        -2.4166    1.9898   -2.8842 H         1 <0>         0.0000
     37 H18        -1.0452   -0.7851    3.2794 H         1 <0>         0.0000
     38 H19        -2.3012   -0.3071    2.1272 H         1 <0>         0.0000
@<TRIPOS>BOND
     1    1   12 1
     2    1   13 3
     3    2   12 1
     4    2   14 am
     5    2   16 2
     6    3    5 1
     7    3    7 1
     8    3   20 1
     9    3   21 1
    10    4    6 1
    11    4    8 1
    12    4   22 1
    13    4   23 1
    14    5   10 1
    15    5   24 1
    16    5   25 1
    17    6   10 1
    18    6   26 1
    19    6   27 1
    20    7   14 1
    21    7   28 1
    22    7   29 1
    23    8   15 1
    24    8   30 1
    25    8   31 1
    26    9   10 1
    27    9   14 1
    28    9   32 1
    29    9   33 1
    30   10   15 1
    31   11   19 1
    32   11   34 1
    33   11   35 1
    34   11   36 1
    35   12   37 1
    36   12   38 1
    37   15   19 1
    38   17   19 2
    39   18   19 2
