@<TRIPOS>MOLECULE
*****
   21    21     0     0     0
SMALL
NO_CHARGES

@<TRIPOS>ATOM
      1 C1          1.6966   -0.8883   -0.3043 C.ar      1 <0>         0.0000
      2 C2          0.6819   -0.3068    0.4487 C.ar      1 <0>         0.0000
      3 C3          2.8236   -1.5514    1.7192 C.ar      1 <0>         0.0000
      4 C4          1.8155   -0.9720    2.5084 C.ar      1 <0>         0.0000
      5 C5          2.7837   -1.5182    0.3253 C.ar      1 <0>         0.0000
      6 C6          0.7484   -0.3532    1.8410 C.ar      1 <0>         0.0000
      7 C7          1.9866   -1.0688    3.9909 C.2       1 <0>         0.0000
      8 C8          1.0927   -0.6203    6.1234 C.3       1 <0>         0.0000
      9 C9          3.8746   -2.1399   -0.4810 C.3       1 <0>         0.0000
     10 O1          2.9650   -1.5775    4.5126 O.2       1 <0>         0.0000
     11 O2          0.9615   -0.5451    4.6880 O.3       1 <0>         0.0000
     12 F1         -0.2585    0.2311    2.5190 F         1 <0>         0.0000
     13 Br1         3.3763   -3.9825   -1.1032 Br        1 <0>         0.0000
     14 H1          1.6419   -0.8619   -1.3897 H         1 <0>         0.0000
     15 H2         -0.1647    0.1863   -0.0187 H         1 <0>         0.0000
     16 H3          3.6454   -2.0338    2.2399 H         1 <0>         0.0000
     17 H4          0.1876   -0.1594    6.5178 H         1 <0>         0.0000
     18 H5          1.9804   -0.0755    6.4527 H         1 <0>         0.0000
     19 H6          1.1695   -1.6616    6.4442 H         1 <0>         0.0000
     20 H7          4.7907   -2.2801    0.0886 H         1 <0>         0.0000
     21 H8          4.0842   -1.5970   -1.4007 H         1 <0>         0.0000
@<TRIPOS>BOND
     1    1    2 ar
     2    1    5 ar
     3    1   14 1
     4    2    6 ar
     5    2   15 1
     6    3    4 ar
     7    3    5 ar
     8    3   16 1
     9    4    6 ar
    10    4    7 1
    11    5    9 1
    12    6   12 1
    13    7   10 2
    14    7   11 1
    15    8   11 1
    16    8   17 1
    17    8   18 1
    18    8   19 1
    19    9   13 1
    20    9   20 1
    21    9   21 1
