@<TRIPOS>MOLECULE
*****
   27    28     0     0     0
SMALL
NO_CHARGES

@<TRIPOS>ATOM
      1 C1         -0.3399   -3.1032   -1.6034 C.1       1 <0>         0.0000
      2 C2          0.2995   -2.4884   -0.7760 C.1       1 <0>         0.0000
      3 C3          1.5153    0.3008    1.3841 C.ar      1 <0>         0.0000
      4 C4          0.7754   -0.3986    0.4309 C.ar      1 <0>         0.0000
      5 C5          2.5213   -0.3384    2.1066 C.ar      1 <0>         0.0000
      6 C6          2.0664   -2.4116    0.9245 C.ar      1 <0>         0.0000
      7 C7          6.2771   -4.9229    3.3299 C.ar      1 <0>         0.0000
      8 C8          5.5852   -3.1836    4.8215 C.ar      1 <0>         0.0000
      9 C9          1.0518   -1.7583    0.2009 C.ar      1 <0>         0.0000
     10 C10         5.4154   -3.8540    3.6053 C.ar      1 <0>         0.0000
     11 C11         2.8010   -1.6976    1.8797 C.ar      1 <0>         0.0000
     12 C12         7.2763   -5.2489    4.2389 C.ar      1 <0>         0.0000
     13 C13         7.3708   -4.4866    5.4224 C.ar      1 <0>         0.0000
     14 C14         4.3403   -3.5508    2.5977 C.2       1 <0>         0.0000
     15 N1          6.5420   -3.4951    5.7027 N.ar      1 <0>         0.0000
     16 N2          3.8287   -2.2765    2.6597 N.am      1 <0>         0.0000
     17 O1          3.9802   -4.4039    1.7903 O.2       1 <0>         0.0000
     18 Cl1         8.3555   -6.5694    3.8968 Cl        1 <0>         0.0000
     19 Cl2         8.6077   -4.8294    6.6031 Cl        1 <0>         0.0000
     20 H1         -0.9004   -3.6494   -2.3323 H         1 <0>         0.0000
     21 H2          1.3091    1.3513    1.5687 H         1 <0>         0.0000
     22 H3         -0.0095    0.0927   -0.1352 H         1 <0>         0.0000
     23 H4          3.0911    0.2168    2.8493 H         1 <0>         0.0000
     24 H5          2.2799   -3.4547    0.7407 H         1 <0>         0.0000
     25 H6          6.1505   -5.4868    2.4114 H         1 <0>         0.0000
     26 H7          4.9158   -2.3846    5.1352 H         1 <0>         0.0000
     27 H8          4.2903   -1.6341    3.2898 H         1 <0>         0.0000
@<TRIPOS>BOND
     1    1    2 3
     2    1   20 1
     3    2    9 1
     4    3    4 ar
     5    3    5 ar
     6    3   21 1
     7    4    9 ar
     8    4   22 1
     9    5   11 ar
    10    5   23 1
    11    6    9 ar
    12    6   11 ar
    13    6   24 1
    14    7   10 ar
    15    7   12 ar
    16    7   25 1
    17    8   10 ar
    18    8   15 ar
    19    8   26 1
    20   10   14 1
    21   11   16 1
    22   12   13 ar
    23   12   18 1
    24   13   15 ar
    25   13   19 1
    26   14   16 am
    27   14   17 2
    28   16   27 1
