@<TRIPOS>MOLECULE
*****
   40    43     0     0     0
SMALL
NO_CHARGES

@<TRIPOS>ATOM
      1 C1         -0.5243   -2.5511   -3.0445 C.1       1 <0>         0.0000
      2 C2         -2.9803   -8.2400    0.9617 C.ar      1 <0>         0.0000
      3 C3         -2.2698   -7.6076    1.9882 C.ar      1 <0>         0.0000
      4 C4         -3.1609   -7.5890   -0.2628 C.ar      1 <0>         0.0000
      5 C5         -1.7544   -6.3240    1.8014 C.ar      1 <0>         0.0000
      6 C6         -2.6383   -6.3096   -0.4650 C.ar      1 <0>         0.0000
      7 C7         -1.8070   -1.9757   -3.2548 C.2       1 <0>         0.0000
      8 C8         -1.0540   -2.2223   -0.0466 C.2       1 <0>         0.0000
      9 C9         -2.6897   -2.3293   -4.3292 C.2       1 <0>         0.0000
     10 C10        -1.9504   -5.6790    0.5761 C.ar      1 <0>         0.0000
     11 C11        -3.8419   -1.6002   -4.3421 C.2       1 <0>         0.0000
     12 C12         0.0949   -2.8378    0.5457 C.2       1 <0>         0.0000
     13 C13        -2.3378   -0.9596   -2.4532 C.2       1 <0>         0.0000
     14 C14        -1.9886   -3.2552   -0.1112 C.2       1 <0>         0.0000
     15 C15        -1.1491   -0.8204   -0.4312 C.2       1 <0>         0.0000
     16 C16        -2.6910   -3.3747   -5.4146 C.3       1 <0>         0.0000
     17 C17        -4.8157   -2.0432   -5.3999 C.3       1 <0>         0.0000
     18 C18        -3.9006   -2.9361   -6.2958 C.3       1 <0>         0.0000
     19 C19         1.4347   -2.2183    0.7830 C.3       1 <0>         0.0000
     20 N1          0.5282   -3.0263   -2.8715 N.1       1 <0>         0.0000
     21 N2         -0.1195   -4.1227    0.8007 N.2       1 <0>         0.0000
     22 N3         -1.7729   -0.2605   -1.4130 N.2       1 <0>         0.0000
     23 N4         -1.4043   -4.3765    0.3933 N.pl3     1 <0>         0.0000
     24 S1         -3.8971   -0.4264   -3.0621 S.3       1 <0>         0.0000
     25 Cl1        -3.6478   -3.1902   -0.5558 Cl        1 <0>         0.0000
     26 H1         -3.3830   -9.2379    1.1124 H         1 <0>         0.0000
     27 H2         -2.1191   -8.1126    2.9384 H         1 <0>         0.0000
     28 H3         -3.6950   -8.0824   -1.0700 H         1 <0>         0.0000
     29 H4         -1.1969   -5.8201    2.5837 H         1 <0>         0.0000
     30 H5         -2.7467   -5.8147   -1.4241 H         1 <0>         0.0000
     31 H6         -0.6061   -0.1305    0.2191 H         1 <0>         0.0000
     32 H7         -1.7554   -3.4099   -5.9814 H         1 <0>         0.0000
     33 H8         -2.8415   -4.3739   -4.9854 H         1 <0>         0.0000
     34 H9         -5.6395   -2.6194   -4.9583 H         1 <0>         0.0000
     35 H10        -5.2636   -1.2176   -5.9621 H         1 <0>         0.0000
     36 H11        -3.5312   -2.3342   -7.1311 H         1 <0>         0.0000
     37 H12        -4.4409   -3.7879   -6.7170 H         1 <0>         0.0000
     38 H13         1.3527   -1.2903    1.3592 H         1 <0>         0.0000
     39 H14         2.0727   -2.9160    1.3292 H         1 <0>         0.0000
     40 H15         1.9148   -1.9809   -0.1721 H         1 <0>         0.0000
@<TRIPOS>BOND
     1    1    7 1
     2    1   20 3
     3    2    4 ar
     4    2    3 ar
     5    2   26 1
     6    3    5 ar
     7    3   27 1
     8    4    6 ar
     9    4   28 1
    10    5   10 ar
    11    5   29 1
    12    6   10 ar
    13    6   30 1
    14    7    9 1
    15    7   13 2
    16    8   12 1
    17    8   14 2
    18    8   15 1
    19    9   11 2
    20    9   16 1
    21   10   23 1
    22   11   17 1
    23   11   24 1
    24   12   19 1
    25   12   21 2
    26   13   22 1
    27   13   24 1
    28   14   23 1
    29   14   25 1
    30   15   22 2
    31   15   31 1
    32   16   18 1
    33   16   32 1
    34   16   33 1
    35   17   18 1
    36   17   34 1
    37   17   35 1
    38   18   36 1
    39   18   37 1
    40   19   38 1
    41   19   39 1
    42   19   40 1
    43   21   23 1
