@<TRIPOS>MOLECULE
*****
   37    39     0     0     0
SMALL
NO_CHARGES

@<TRIPOS>ATOM
      1 C1          0.0385   -2.0023   -0.5043 C.ar      1 <0>         0.0000
      2 C2          0.8473   -1.0387    0.1113 C.ar      1 <0>         0.0000
      3 C3          0.4380   -3.3423   -0.5860 C.ar      1 <0>         0.0000
      4 C4         -3.0327   -8.0193   -4.0461 C.ar      1 <0>         0.0000
      5 C5         -2.3745   -9.1191   -3.4958 C.ar      1 <0>         0.0000
      6 C6          2.0827   -1.3971    0.6691 C.ar      1 <0>         0.0000
      7 C7         -1.4512   -6.5561   -2.9974 C.ar      1 <0>         0.0000
      8 C8          1.6729   -3.7033   -0.0366 C.ar      1 <0>         0.0000
      9 C9         -0.7809   -7.6575   -2.4299 C.ar      1 <0>         0.0000
     10 C10        -2.5781   -6.7128   -3.8024 C.ar      1 <0>         0.0000
     11 C11        -1.2433   -8.9697   -2.6829 C.ar      1 <0>         0.0000
     12 C12         2.4596   -2.7262    0.5782 C.ar      1 <0>         0.0000
     13 C13         2.3715   -5.0195    0.0581 C.2       1 <0>         0.0000
     14 C14         0.3999   -7.4432   -1.5906 C.2       1 <0>         0.0000
     15 C15        -3.2996   -5.5181   -4.3822 C.3       1 <0>         0.0000
     16 C16        -0.5668  -10.1941   -2.1049 C.3       1 <0>         0.0000
     17 N1          3.5260   -5.0618    0.6669 N.2       1 <0>         0.0000
     18 N2          0.7404   -6.2686   -1.1818 N.2       1 <0>         0.0000
     19 N3          1.8757   -6.1881   -0.4354 N.pl3     1 <0>         0.0000
     20 O1          5.1289   -3.0439    0.4761 O.2       1 <0>         0.0000
     21 O2          3.9584   -3.4850    2.6734 O.2       1 <0>         0.0000
     22 S1          3.9543   -3.5129    1.2108 S.o2      1 <0>         0.0000
     23 H1         -0.9185   -1.7069   -0.9252 H         1 <0>         0.0000
     24 H2          0.5142   -0.0058    0.1614 H         1 <0>         0.0000
     25 H3         -0.1898   -4.0861   -1.0569 H         1 <0>         0.0000
     26 H4         -3.9046   -8.1772   -4.6774 H         1 <0>         0.0000
     27 H5         -2.7465  -10.1196   -3.7038 H         1 <0>         0.0000
     28 H6          2.7186   -0.6644    1.1565 H         1 <0>         0.0000
     29 H7         -1.0586   -5.5612   -2.8085 H         1 <0>         0.0000
     30 H8          1.0005   -8.3176   -1.3172 H         1 <0>         0.0000
     31 H9         -4.1707   -5.2530   -3.7711 H         1 <0>         0.0000
     32 H10        -2.6479   -4.6410   -4.4271 H         1 <0>         0.0000
     33 H11        -3.6615   -5.7232   -5.3943 H         1 <0>         0.0000
     34 H12         0.4679  -10.2940   -2.4530 H         1 <0>         0.0000
     35 H13        -0.5453  -10.1718   -1.0098 H         1 <0>         0.0000
     36 H14        -1.0978  -11.1011   -2.4032 H         1 <0>         0.0000
     37 H15         2.4568   -7.0141   -0.2783 H         1 <0>         0.0000
@<TRIPOS>BOND
     1    1    2 ar
     2    1    3 ar
     3    1   23 1
     4    2    6 ar
     5    2   24 1
     6    3    8 ar
     7    3   25 1
     8    4    5 ar
     9    4   10 ar
    10    4   26 1
    11    5   11 ar
    12    5   27 1
    13    6   12 ar
    14    6   28 1
    15    7    9 ar
    16    7   10 ar
    17    7   29 1
    18    8   12 ar
    19    8   13 1
    20    9   11 ar
    21    9   14 1
    22   10   15 1
    23   11   16 1
    24   12   22 1
    25   13   17 2
    26   13   19 1
    27   14   18 2
    28   14   30 1
    29   15   31 1
    30   15   32 1
    31   15   33 1
    32   16   34 1
    33   16   35 1
    34   16   36 1
    35   17   22 1
    36   18   19 1
    37   19   37 1
    38   20   22 2
    39   21   22 2
