@<TRIPOS>MOLECULE
*****
   40    43     0     0     0
SMALL
NO_CHARGES

@<TRIPOS>ATOM
      1 C1          0.7808   -1.2143    2.1113 C.ar      1 <0>         0.0000
      2 C2         -0.0659   -1.1578    0.9973 C.ar      1 <0>         0.0000
      3 C3          1.5839   -2.3369    2.3108 C.ar      1 <0>         0.0000
      4 C4         -0.0926   -2.2237    0.0989 C.ar      1 <0>         0.0000
      5 C5          0.9799   -7.4663   -6.1463 C.ar      1 <0>         0.0000
      6 C6          0.8537   -6.7862   -4.9371 C.ar      1 <0>         0.0000
      7 C7          2.3979   -8.3064   -3.7840 C.ar      1 <0>         0.0000
      8 C8          1.5671   -3.4116    1.4090 C.ar      1 <0>         0.0000
      9 C9          0.7218   -3.3487    0.2922 C.ar      1 <0>         0.0000
     10 C10         1.8254   -8.5786   -6.1775 C.ar      1 <0>         0.0000
     11 C11         1.5462   -7.1883   -3.7661 C.ar      1 <0>         0.0000
     12 C12         2.4976   -8.9546   -5.0067 C.ar      1 <0>         0.0000
     13 C13         2.9945  -10.3042   -6.6503 C.2       1 <0>         0.0000
     14 C14         1.8361   -6.5920   -1.3389 C.2       1 <0>         0.0000
     15 C15         2.4204   -4.6388    1.6315 C.3       1 <0>         0.0000
     16 C16         0.6694   -4.4555   -0.7475 C.3       1 <0>         0.0000
     17 C17         1.7738   -5.8625    0.9902 C.3       1 <0>         0.0000
     18 C18         3.6874  -11.4682   -7.2637 C.3       1 <0>         0.0000
     19 N1          2.1719   -9.4684   -7.2039 N.2       1 <0>         0.0000
     20 N2          1.5136   -5.6003   -0.4257 N.am      1 <0>         0.0000
     21 N3          1.3301   -6.3972   -2.6170 N.am      1 <0>         0.0000
     22 O1          2.5289   -7.5656   -1.0357 O.2       1 <0>         0.0000
     23 O2          3.2527  -10.0680   -5.3081 O.3       1 <0>         0.0000
     24 H1          0.8068   -0.3918    2.8212 H         1 <0>         0.0000
     25 H2         -0.7017   -0.2918    0.8339 H         1 <0>         0.0000
     26 H3          2.2335   -2.3896    3.1821 H         1 <0>         0.0000
     27 H4         -0.7530   -2.1824   -0.7659 H         1 <0>         0.0000
     28 H5          0.4411   -7.1434   -7.0317 H         1 <0>         0.0000
     29 H6          0.2026   -5.9154   -4.8875 H         1 <0>         0.0000
     30 H7          2.9242   -8.6273   -2.8966 H         1 <0>         0.0000
     31 H8          3.4165   -4.4938    1.1952 H         1 <0>         0.0000
     32 H9          2.5590   -4.8122    2.7041 H         1 <0>         0.0000
     33 H10        -0.3817   -4.7607   -0.8840 H         1 <0>         0.0000
     34 H11         1.0100   -4.0176   -1.6936 H         1 <0>         0.0000
     35 H12         2.4222   -6.7348    1.0440 H         1 <0>         0.0000
     36 H13         0.8311   -6.1005    1.5044 H         1 <0>         0.0000
     37 H14         4.7739  -11.3532   -7.1916 H         1 <0>         0.0000
     38 H15         3.4168  -12.3951   -6.7476 H         1 <0>         0.0000
     39 H16         3.4004  -11.5415   -8.3130 H         1 <0>         0.0000
     40 H17         0.6807   -5.6383   -2.7574 H         1 <0>         0.0000
@<TRIPOS>BOND
     1    1    2 ar
     2    1    3 ar
     3    1   24 1
     4    2    4 ar
     5    2   25 1
     6    3    8 ar
     7    3   26 1
     8    4    9 ar
     9    4   27 1
    10    5    6 ar
    11    5   10 ar
    12    5   28 1
    13    6   11 ar
    14    6   29 1
    15    7   11 ar
    16    7   12 ar
    17    7   30 1
    18    8    9 ar
    19    8   15 1
    20    9   16 1
    21   10   12 ar
    22   10   19 1
    23   11   21 1
    24   12   23 1
    25   13   18 1
    26   13   19 2
    27   13   23 1
    28   14   20 am
    29   14   21 am
    30   14   22 2
    31   15   17 1
    32   15   31 1
    33   15   32 1
    34   16   20 1
    35   16   33 1
    36   16   34 1
    37   17   20 1
    38   17   35 1
    39   17   36 1
    40   18   37 1
    41   18   38 1
    42   18   39 1
    43   21   40 1
