@<TRIPOS>MOLECULE
*****
   27    28     0     0     0
SMALL
NO_CHARGES

@<TRIPOS>ATOM
      1 C1          0.9518    2.8172    1.9583 C.1       1 <0>         0.0000
      2 C2          1.2010    1.6501    1.7402 C.1       1 <0>         0.0000
      3 C3          1.0700   -1.7920    0.2958 C.ar      1 <0>         0.0000
      4 C4          0.7619   -0.4528    0.5260 C.ar      1 <0>         0.0000
      5 C5          2.0946   -2.4382    0.9930 C.ar      1 <0>         0.0000
      6 C6          2.5260   -0.3683    2.1891 C.ar      1 <0>         0.0000
      7 C7          6.4070   -4.8589    3.3179 C.ar      1 <0>         0.0000
      8 C8          5.6758   -3.1693    4.8475 C.ar      1 <0>         0.0000
      9 C9          1.4964    0.2722    1.4834 C.ar      1 <0>         0.0000
     10 C10         5.5135   -3.8244    3.6220 C.ar      1 <0>         0.0000
     11 C11         2.8280   -1.7161    1.9493 C.ar      1 <0>         0.0000
     12 C12         7.4283   -5.1657    4.2088 C.ar      1 <0>         0.0000
     13 C13         7.5118   -4.4210    5.4043 C.ar      1 <0>         0.0000
     14 C14         4.4178   -3.5385    2.6321 C.2       1 <0>         0.0000
     15 N1          6.6532   -3.4636    5.7118 N.ar      1 <0>         0.0000
     16 N2          3.8759   -2.2782    2.7148 N.am      1 <0>         0.0000
     17 O1          4.0695   -4.3920    1.8194 O.2       1 <0>         0.0000
     18 Cl1         8.5484   -6.4415    3.8301 Cl        1 <0>         0.0000
     19 Cl2         8.7747   -4.7406    6.5637 Cl        1 <0>         0.0000
     20 H1          0.7291    3.8460    2.1477 H         1 <0>         0.0000
     21 H2          0.5048   -2.3530   -0.4434 H         1 <0>         0.0000
     22 H3         -0.0351    0.0396   -0.0218 H         1 <0>         0.0000
     23 H4          2.3307   -3.4756    0.8029 H         1 <0>         0.0000
     24 H5          3.0883    0.1980    2.9280 H         1 <0>         0.0000
     25 H6          6.2883   -5.4113    2.3915 H         1 <0>         0.0000
     26 H7          4.9838   -2.3986    5.1827 H         1 <0>         0.0000
     27 H8          4.3292   -1.6319    3.3471 H         1 <0>         0.0000
@<TRIPOS>BOND
     1    1    2 3
     2    1   20 1
     3    2    9 1
     4    3    4 ar
     5    3    5 ar
     6    3   21 1
     7    4    9 ar
     8    4   22 1
     9    5   11 ar
    10    5   23 1
    11    6    9 ar
    12    6   11 ar
    13    6   24 1
    14    7   10 ar
    15    7   12 ar
    16    7   25 1
    17    8   10 ar
    18    8   15 ar
    19    8   26 1
    20   10   14 1
    21   11   16 1
    22   12   13 ar
    23   12   18 1
    24   13   15 ar
    25   13   19 1
    26   14   16 am
    27   14   17 2
    28   16   27 1
