@<TRIPOS>MOLECULE
*****
   33    34     0     0     0
SMALL
NO_CHARGES

@<TRIPOS>ATOM
      1 C1          6.1925    0.1616    3.1319 C.ar      1 <0>         0.0000
      2 C2          5.5818    1.4093    2.9888 C.ar      1 <0>         0.0000
      3 C3          5.9813   -0.8205    2.1604 C.ar      1 <0>         0.0000
      4 C4          1.5895   -1.5062   -0.6905 C.ar      1 <0>         0.0000
      5 C5          0.3318   -1.0908   -0.2683 C.ar      1 <0>         0.0000
      6 C6          4.7771    1.6801    1.8747 C.ar      1 <0>         0.0000
      7 C7          2.3739   -1.4236    1.5945 C.ar      1 <0>         0.0000
      8 C8          1.1088   -1.0472    2.0421 C.ar      1 <0>         0.0000
      9 C9          2.6390   -1.6300    0.2298 C.ar      1 <0>         0.0000
     10 C10         5.1281   -0.5884    1.0780 C.ar      1 <0>         0.0000
     11 C11         0.0753   -0.8495    1.0937 C.ar      1 <0>         0.0000
     12 C12         4.5558    0.6937    0.9078 C.ar      1 <0>         0.0000
     13 C13         0.8330   -0.8559    3.5138 C.3       1 <0>         0.0000
     14 C14         2.9281    1.9921   -0.2695 C.3       1 <0>         0.0000
     15 N1          3.8875   -2.0588   -0.3054 N.2       1 <0>         0.0000
     16 N2          4.9987   -1.6431    0.1113 N.2       1 <0>         0.0000
     17 N3         -1.2160   -0.5114    1.5200 N.pl3     1 <0>         0.0000
     18 O1          3.8153    0.8800   -0.2229 O.3       1 <0>         0.0000
     19 H1          6.8340   -0.0438    3.9842 H         1 <0>         0.0000
     20 H2          5.7421    2.1866    3.7313 H         1 <0>         0.0000
     21 H3          6.4502   -1.7978    2.2395 H         1 <0>         0.0000
     22 H4          1.7877   -1.7102   -1.7387 H         1 <0>         0.0000
     23 H5         -0.4716   -0.9716   -0.9927 H         1 <0>         0.0000
     24 H6          4.3319    2.6629    1.7644 H         1 <0>         0.0000
     25 H7          3.1589   -1.5777    2.3265 H         1 <0>         0.0000
     26 H8          0.5501    0.1807    3.7452 H         1 <0>         0.0000
     27 H9          0.0142   -1.5009    3.8550 H         1 <0>         0.0000
     28 H10         1.7182   -1.0865    4.1108 H         1 <0>         0.0000
     29 H11         2.3308    1.8561   -1.1717 H         1 <0>         0.0000
     30 H12         3.4739    2.9415   -0.3347 H         1 <0>         0.0000
     31 H13         2.2678    2.0015    0.6059 H         1 <0>         0.0000
     32 H14        -1.8082   -0.1208    0.7965 H         1 <0>         0.0000
     33 H15        -1.2629    0.0332    2.3728 H         1 <0>         0.0000
@<TRIPOS>BOND
     1    1    2 ar
     2    1    3 ar
     3    1   19 1
     4    2    6 ar
     5    2   20 1
     6    3   10 ar
     7    3   21 1
     8    4    5 ar
     9    4    9 ar
    10    4   22 1
    11    5   11 ar
    12    5   23 1
    13    6   12 ar
    14    6   24 1
    15    7    8 ar
    16    7    9 ar
    17    7   25 1
    18    8   11 ar
    19    8   13 1
    20    9   15 1
    21   10   12 ar
    22   10   16 1
    23   11   17 1
    24   12   18 1
    25   13   26 1
    26   13   27 1
    27   13   28 1
    28   14   18 1
    29   14   29 1
    30   14   30 1
    31   14   31 1
    32   15   16 2
    33   17   32 1
    34   17   33 1
