@<TRIPOS>MOLECULE
*****
   37    40     0     0     0
SMALL
NO_CHARGES

@<TRIPOS>ATOM
      1 C1         -1.8492   -5.2413    0.3652 C.ar      1 <0>         0.0000
      2 C2         -1.8497   -0.4496   -0.4872 C.ar      1 <0>         0.0000
      3 C3         -1.1667   -4.1716   -0.2106 C.ar      1 <0>         0.0000
      4 C4         -1.1576   -1.6354   -0.6669 C.ar      1 <0>         0.0000
      5 C5         -3.0898   -5.0835    1.0430 C.ar      1 <0>         0.0000
      6 C6         -3.0984   -0.3582    0.2117 C.ar      1 <0>         0.0000
      7 C7         -1.6955   -2.8519   -0.1399 C.ar      1 <0>         0.0000
      8 C8         -2.9158   -2.7400    0.5390 C.ar      1 <0>         0.0000
      9 C9         -3.6151   -3.8075    1.1215 C.ar      1 <0>         0.0000
     10 C10        -3.6166   -1.5260    0.7251 C.ar      1 <0>         0.0000
     11 C11        -6.4569   -0.2751    0.6163 C.2       1 <0>         0.0000
     12 C12        -7.4766   -0.1610   -1.2628 C.2       1 <0>         0.0000
     13 C13        -4.8585   -3.2263    1.7186 C.2       1 <0>         0.0000
     14 C14        -9.5315   -1.3236   -2.0865 C.3       1 <0>         0.0000
     15 C15        -7.3025   -1.6072   -3.2909 C.3       1 <0>         0.0000
     16 C16        -5.8281   -0.9067    1.8162 C.3       1 <0>         0.0000
     17 C17        -8.1978   -0.6570   -2.4728 C.3       1 <0>         0.0000
     18 N1         -6.4617    0.9759    0.2797 N.2       1 <0>         0.0000
     19 N2         -7.1368    1.0528   -0.9508 N.2       1 <0>         0.0000
     20 N3         -4.7794   -1.8366    1.4516 N.am      1 <0>         0.0000
     21 O1         -5.7780   -3.7653    2.3168 O.2       1 <0>         0.0000
     22 O2         -7.0793   -1.0661   -0.3084 O.3       1 <0>         0.0000
     23 H1         -1.4188   -6.2366    0.2933 H         1 <0>         0.0000
     24 H2         -1.4343    0.4680   -0.8953 H         1 <0>         0.0000
     25 H3         -0.2219   -4.3504   -0.7190 H         1 <0>         0.0000
     26 H4         -0.2144   -1.6408   -1.2067 H         1 <0>         0.0000
     27 H5         -3.5987   -5.9387    1.4788 H         1 <0>         0.0000
     28 H6         -3.6005    0.5993    0.3096 H         1 <0>         0.0000
     29 H7         -9.3604   -2.2122   -1.4711 H         1 <0>         0.0000
     30 H8        -10.0677   -1.6330   -2.9890 H         1 <0>         0.0000
     31 H9        -10.1718   -0.6352   -1.5268 H         1 <0>         0.0000
     32 H10        -7.0589   -2.5059   -2.7158 H         1 <0>         0.0000
     33 H11        -6.3664   -1.1200   -3.5795 H         1 <0>         0.0000
     34 H12        -7.8236   -1.9169   -4.2022 H         1 <0>         0.0000
     35 H13        -5.4396   -0.1007    2.4459 H         1 <0>         0.0000
     36 H14        -6.5671   -1.4773    2.3861 H         1 <0>         0.0000
     37 H15        -8.4043    0.2387   -3.0664 H         1 <0>         0.0000
@<TRIPOS>BOND
     1    1    3 ar
     2    1    5 ar
     3    1   23 1
     4    2    4 ar
     5    2    6 ar
     6    2   24 1
     7    3    7 ar
     8    3   25 1
     9    4    7 ar
    10    4   26 1
    11    5    9 ar
    12    5   27 1
    13    6   10 ar
    14    6   28 1
    15    7    8 ar
    16    8    9 ar
    17    8   10 ar
    18    9   13 1
    19   10   20 1
    20   11   16 1
    21   11   18 2
    22   11   22 1
    23   12   17 1
    24   12   19 2
    25   12   22 1
    26   13   20 am
    27   13   21 2
    28   14   17 1
    29   14   29 1
    30   14   30 1
    31   14   31 1
    32   15   17 1
    33   15   32 1
    34   15   33 1
    35   15   34 1
    36   16   20 1
    37   16   35 1
    38   16   36 1
    39   17   37 1
    40   18   19 1
