@<TRIPOS>MOLECULE
*****
   21    22     0     0     0
SMALL
NO_CHARGES

@<TRIPOS>ATOM
      1 C1         -1.1340    2.2301    0.7509 C.ar      1 <0>         0.0000
      2 C2         -1.2506    3.4468    1.4299 C.ar      1 <0>         0.0000
      3 C3         -0.5256    1.1149    2.8087 C.ar      1 <0>         0.0000
      4 C4         -0.7665    1.0603    1.4292 C.ar      1 <0>         0.0000
      5 C5         -1.0061    3.4863    2.7976 C.ar      1 <0>         0.0000
      6 C6         -0.6487    2.3233    3.4804 C.ar      1 <0>         0.0000
      7 C7          0.8597   -0.6356    0.2293 C.3       1 <0>         0.0000
      8 C8          0.4968   -2.0626    0.7061 C.3       1 <0>         0.0000
      9 C9         -0.5793   -0.2340    0.6798 C.3       1 <0>         0.0000
     10 N1         -0.6236   -1.4770    1.4935 N.3       1 <0>         0.0000
     11 F1         -1.1206    4.6483    3.4793 F         1 <0>         0.0000
     12 F2         -0.4257    2.3872    4.8124 F         1 <0>         0.0000
     13 H1         -1.3319    2.1960   -0.3178 H         1 <0>         0.0000
     14 H2         -1.5349    4.3621    0.9195 H         1 <0>         0.0000
     15 H3         -0.2561    0.2131    3.3493 H         1 <0>         0.0000
     16 H4          1.6244   -0.1629    0.8492 H         1 <0>         0.0000
     17 H5          1.1019   -0.4988   -0.8263 H         1 <0>         0.0000
     18 H6          0.1728   -2.7051   -0.1246 H         1 <0>         0.0000
     19 H7          1.2342   -2.6016    1.3094 H         1 <0>         0.0000
     20 H8         -1.2617   -0.2562   -0.1833 H         1 <0>         0.0000
     21 H9         -1.5055   -1.9848    1.4553 H         1 <0>         0.0000
@<TRIPOS>BOND
     1    1    2 ar
     2    1    4 ar
     3    1   13 1
     4    2    5 ar
     5    2   14 1
     6    3    4 ar
     7    3    6 ar
     8    3   15 1
     9    4    9 1
    10    5    6 ar
    11    5   11 1
    12    6   12 1
    13    7    8 1
    14    7    9 1
    15    7   16 1
    16    7   17 1
    17    8   10 1
    18    8   18 1
    19    8   19 1
    20    9   10 1
    21    9   20 1
    22   10   21 1
