@<TRIPOS>MOLECULE
*****
   49    52     0     0     0
SMALL
NO_CHARGES

@<TRIPOS>ATOM
      1 C1         -8.3294    2.6844   -3.7393 C.2       1 <0>         0.0000
      2 C2         -6.4963    1.1182   -3.5807 C.2       1 <0>         0.0000
      3 C3         -2.3018   -0.5257    0.2380 C.2       1 <0>         0.0000
      4 C4         -3.9912   -1.4829   -4.1982 C.3       1 <0>         0.0000
      5 C5         -2.5764   -1.6839   -2.0113 C.3       1 <0>         0.0000
      6 C6         -5.3387   -1.0113   -3.6518 C.3       1 <0>         0.0000
      7 C7         -2.2755   -1.3924    2.5252 C.3       1 <0>         0.0000
      8 C8         -0.8641   -2.5004    0.8838 C.3       1 <0>         0.0000
      9 C9         -3.0171   -2.7084    2.7572 C.3       1 <0>         0.0000
     10 C10        -1.6205   -3.8083    1.1332 C.3       1 <0>         0.0000
     11 C11        -4.3069    0.8816   -2.4772 C.3       1 <0>         0.0000
     12 C12        -1.7844   -0.6203   -1.2087 C.3       1 <0>         0.0000
     13 C13        -2.7983   -0.9942   -3.3681 C.3       1 <0>         0.0000
     14 C14        -2.9015    0.4791   -2.9508 C.3       1 <0>         0.0000
     15 C15        -9.2847    3.8366   -3.7196 C.3       1 <0>         0.0000
     16 C16        -2.8026   -5.1168    2.7801 C.3       1 <0>         0.0000
     17 N1         -8.6144    1.5046   -4.1970 N.2       1 <0>         0.0000
     18 N2         -7.5836    0.5997   -4.1036 N.2       1 <0>         0.0000
     19 N3         -5.3099    0.4435   -3.4519 N.pl3     1 <0>         0.0000
     20 N4         -1.7246   -1.3533    1.1684 N.am      1 <0>         0.0000
     21 N5         -2.1358   -3.8505    2.4997 N.3       1 <0>         0.0000
     22 O1         -3.2111    0.2532    0.5247 O.2       1 <0>         0.0000
     23 O2         -1.9578    0.6276   -1.8846 O.3       1 <0>         0.0000
     24 S1         -6.6790    2.8153   -3.1183 S.3       1 <0>         0.0000
     25 H1         -3.9872   -2.5773   -4.2616 H         1 <0>         0.0000
     26 H2         -3.8878   -1.1034   -5.2209 H         1 <0>         0.0000
     27 H3         -2.0281   -2.6246   -2.1063 H         1 <0>         0.0000
     28 H4         -3.5292   -1.9031   -1.5207 H         1 <0>         0.0000
     29 H5         -6.1408   -1.2441   -4.3504 H         1 <0>         0.0000
     30 H6         -5.5814   -1.5060   -2.6983 H         1 <0>         0.0000
     31 H7         -2.9442   -0.5416    2.6468 H         1 <0>         0.0000
     32 H8         -1.4466   -1.3072    3.2377 H         1 <0>         0.0000
     33 H9          0.0063   -2.4573    1.5497 H         1 <0>         0.0000
     34 H10        -0.5019   -2.4742   -0.1420 H         1 <0>         0.0000
     35 H11        -3.3555   -2.7553    3.7979 H         1 <0>         0.0000
     36 H12        -3.9158   -2.7336    2.1111 H         1 <0>         0.0000
     37 H13        -2.4340   -3.9011    0.3855 H         1 <0>         0.0000
     38 H14        -0.9377   -4.6529    0.9872 H         1 <0>         0.0000
     39 H15        -4.5043    0.4584   -1.4849 H         1 <0>         0.0000
     40 H16        -4.3337    1.9672   -2.3697 H         1 <0>         0.0000
     41 H17        -0.7106   -0.8293   -1.2228 H         1 <0>         0.0000
     42 H18        -1.8823   -1.1063   -3.9596 H         1 <0>         0.0000
     43 H19        -2.5872    1.1478   -3.7575 H         1 <0>         0.0000
     44 H20        -9.4614    4.1925   -2.6990 H         1 <0>         0.0000
     45 H21        -8.9079    4.6798   -4.3083 H         1 <0>         0.0000
     46 H22       -10.2335    3.5048   -4.1463 H         1 <0>         0.0000
     47 H23        -3.1305   -5.1362    3.8241 H         1 <0>         0.0000
     48 H24        -2.1024   -5.9447    2.6289 H         1 <0>         0.0000
     49 H25        -3.6868   -5.2905    2.1382 H         1 <0>         0.0000
@<TRIPOS>BOND
     1    1   15 1
     2    1   17 2
     3    1   24 1
     4    2   18 2
     5    2   19 1
     6    2   24 1
     7    3   12 1
     8    3   20 am
     9    3   22 2
    10    4    6 1
    11    4   13 1
    12    4   25 1
    13    4   26 1
    14    5   12 1
    15    5   13 1
    16    5   27 1
    17    5   28 1
    18    6   19 1
    19    6   29 1
    20    6   30 1
    21    7    9 1
    22    7   20 1
    23    7   31 1
    24    7   32 1
    25    8   10 1
    26    8   20 1
    27    8   33 1
    28    8   34 1
    29    9   21 1
    30    9   35 1
    31    9   36 1
    32   10   21 1
    33   10   37 1
    34   10   38 1
    35   11   14 1
    36   11   19 1
    37   11   39 1
    38   11   40 1
    39   12   23 1
    40   12   41 1
    41   13   14 1
    42   13   42 1
    43   14   23 1
    44   14   43 1
    45   15   44 1
    46   15   45 1
    47   15   46 1
    48   16   21 1
    49   16   47 1
    50   16   48 1
    51   16   49 1
    52   17   18 1
