@<TRIPOS>MOLECULE
*****
   42    45     0     0     0
SMALL
NO_CHARGES

@<TRIPOS>ATOM
      1 C1         -2.3187    8.5768   -7.7949 C.ar      1 <0>         0.0000
      2 C2         -2.1961    7.4925   -8.6702 C.ar      1 <0>         0.0000
      3 C3         -2.0562    8.3980   -6.4321 C.ar      1 <0>         0.0000
      4 C4          2.7827   -0.0496   -1.0604 C.ar      1 <0>         0.0000
      5 C5         -1.8126    6.2368   -8.1955 C.ar      1 <0>         0.0000
      6 C6         -1.6732    7.1493   -5.9400 C.ar      1 <0>         0.0000
      7 C7          1.7666   -0.7782   -0.4472 C.ar      1 <0>         0.0000
      8 C8          0.1682    0.2654   -1.9619 C.ar      1 <0>         0.0000
      9 C9          2.5337    0.8420   -2.1132 C.ar      1 <0>         0.0000
     10 C10        -1.5533    6.0762   -6.8301 C.ar      1 <0>         0.0000
     11 C11         1.2071    0.9977   -2.5624 C.ar      1 <0>         0.0000
     12 C12         0.4707   -0.5985   -0.9236 C.ar      1 <0>         0.0000
     13 C13        -0.5277    3.2979   -5.0091 C.2       1 <0>         0.0000
     14 C14        -0.6757    2.7413   -6.3072 C.2       1 <0>         0.0000
     15 C15        -0.2369    2.6150   -3.7087 C.2       1 <0>         0.0000
     16 C16         3.6965    1.5817   -2.7474 C.3       1 <0>         0.0000
     17 C17         3.2361    2.6747   -3.7123 C.3       1 <0>         0.0000
     18 C18         2.0680    2.1535   -4.5480 C.3       1 <0>         0.0000
     19 C19        -0.4551    1.3387   -6.7788 C.3       1 <0>         0.0000
     20 N1         -0.8485    4.5946   -5.0569 N.2       1 <0>         0.0000
     21 N2         -1.0829    3.7159   -7.1256 N.2       1 <0>         0.0000
     22 N3         -1.1625    4.8008   -6.3374 N.pl3     1 <0>         0.0000
     23 N4          0.9256    1.8533   -3.6712 N.am      1 <0>         0.0000
     24 O1         -1.0353    2.6879   -2.7820 O.2       1 <0>         0.0000
     25 F1         -0.5409   -1.3038   -0.3521 F         1 <0>         0.0000
     26 H1         -2.6177    9.5514   -8.1706 H         1 <0>         0.0000
     27 H2         -2.3993    7.6211   -9.7299 H         1 <0>         0.0000
     28 H3         -2.1519    9.2336   -5.7441 H         1 <0>         0.0000
     29 H4          3.8058   -0.1690   -0.7107 H         1 <0>         0.0000
     30 H5         -1.7150    5.3880   -8.8622 H         1 <0>         0.0000
     31 H6         -1.4717    6.9956   -4.8863 H         1 <0>         0.0000
     32 H7          1.9595   -1.4625    0.3727 H         1 <0>         0.0000
     33 H8         -0.8590    0.3749   -2.2822 H         1 <0>         0.0000
     34 H9          4.3336    2.0063   -1.9643 H         1 <0>         0.0000
     35 H10         4.3189    0.8589   -3.2913 H         1 <0>         0.0000
     36 H11         2.9029    3.5625   -3.1638 H         1 <0>         0.0000
     37 H12         4.0572    2.9803   -4.3691 H         1 <0>         0.0000
     38 H13         1.7623    2.8936   -5.2842 H         1 <0>         0.0000
     39 H14         2.3587    1.2402   -5.0816 H         1 <0>         0.0000
     40 H15        -0.7788    0.6173   -6.0240 H         1 <0>         0.0000
     41 H16        -1.0126    1.1607   -7.7007 H         1 <0>         0.0000
     42 H17         0.6048    1.1502   -6.9821 H         1 <0>         0.0000
@<TRIPOS>BOND
     1    1    3 ar
     2    1    2 ar
     3    1   26 1
     4    2    5 ar
     5    2   27 1
     6    3    6 ar
     7    3   28 1
     8    4    7 ar
     9    4    9 ar
    10    4   29 1
    11    5   10 ar
    12    5   30 1
    13    6   10 ar
    14    6   31 1
    15    7   12 ar
    16    7   32 1
    17    8   11 ar
    18    8   12 ar
    19    8   33 1
    20    9   11 ar
    21    9   16 1
    22   10   22 1
    23   11   23 1
    24   12   25 1
    25   13   14 1
    26   13   15 1
    27   13   20 2
    28   14   19 1
    29   14   21 2
    30   15   23 am
    31   15   24 2
    32   16   17 1
    33   16   34 1
    34   16   35 1
    35   17   18 1
    36   17   36 1
    37   17   37 1
    38   18   23 1
    39   18   38 1
    40   18   39 1
    41   19   40 1
    42   19   41 1
    43   19   42 1
    44   20   22 1
    45   21   22 1
