@<TRIPOS>MOLECULE
*****
   37    40     0     0     0
SMALL
NO_CHARGES

@<TRIPOS>ATOM
      1 C1         -2.0010   -5.1720    0.3779 C.ar      1 <0>         0.0000
      2 C2         -1.1144   -0.3878    0.3171 C.ar      1 <0>         0.0000
      3 C3         -1.0232   -4.1794    0.3722 C.ar      1 <0>         0.0000
      4 C4         -0.5430   -1.6488    0.3419 C.ar      1 <0>         0.0000
      5 C5         -3.3924   -4.8771    0.3682 C.ar      1 <0>         0.0000
      6 C6         -2.5293   -0.1613    0.3072 C.ar      1 <0>         0.0000
      7 C7         -1.3871   -2.8033    0.3564 C.ar      1 <0>         0.0000
      8 C8         -2.7662   -2.5567    0.3500 C.ar      1 <0>         0.0000
      9 C9         -3.7612   -3.5453    0.3545 C.ar      1 <0>         0.0000
     10 C10        -3.3458   -1.2677    0.3289 C.ar      1 <0>         0.0000
     11 C11        -5.8295    0.2122   -1.0803 C.2       1 <0>         0.0000
     12 C12        -6.5558    1.5611   -2.5794 C.2       1 <0>         0.0000
     13 C13        -5.0730   -2.8275    0.3376 C.2       1 <0>         0.0000
     14 C14        -8.8984    2.2157   -3.1360 C.3       1 <0>         0.0000
     15 C15        -6.9473    2.9965   -4.5793 C.3       1 <0>         0.0000
     16 C16        -5.7390   -0.4190    0.2779 C.3       1 <0>         0.0000
     17 C17        -7.4151    2.6375   -3.1631 C.3       1 <0>         0.0000
     18 N1         -5.1555   -0.0444   -2.1533 N.2       1 <0>         0.0000
     19 N2         -5.6340    0.8415   -3.1379 N.2       1 <0>         0.0000
     20 N3         -4.7385   -1.4497    0.3405 N.am      1 <0>         0.0000
     21 O1         -6.2166   -3.2588    0.3358 O.2       1 <0>         0.0000
     22 O2         -6.7388    1.2199   -1.2556 O.3       1 <0>         0.0000
     23 H1         -1.6900   -6.2133    0.3877 H         1 <0>         0.0000
     24 H2         -0.4642    0.4829    0.2972 H         1 <0>         0.0000
     25 H3          0.0270   -4.4621    0.3773 H         1 <0>         0.0000
     26 H4          0.5381   -1.7586    0.3443 H         1 <0>         0.0000
     27 H5         -4.1304   -5.6743    0.3689 H         1 <0>         0.0000
     28 H6         -2.9158    0.8524    0.2638 H         1 <0>         0.0000
     29 H7         -9.0595    1.3373   -3.7694 H         1 <0>         0.0000
     30 H8         -9.5232    3.0301   -3.5157 H         1 <0>         0.0000
     31 H9         -9.2290    1.9744   -2.1219 H         1 <0>         0.0000
     32 H10        -7.0376    2.1361   -5.2480 H         1 <0>         0.0000
     33 H11        -5.9017    3.3145   -4.5863 H         1 <0>         0.0000
     34 H12        -7.5637    3.8100   -4.9741 H         1 <0>         0.0000
     35 H13        -5.5401    0.3578    1.0266 H         1 <0>         0.0000
     36 H14        -6.6997   -0.8810    0.5269 H         1 <0>         0.0000
     37 H15        -7.3031    3.5185   -2.5170 H         1 <0>         0.0000
@<TRIPOS>BOND
     1    1    3 ar
     2    1    5 ar
     3    1   23 1
     4    2    4 ar
     5    2    6 ar
     6    2   24 1
     7    3    7 ar
     8    3   25 1
     9    4    7 ar
    10    4   26 1
    11    5    9 ar
    12    5   27 1
    13    6   10 ar
    14    6   28 1
    15    7    8 ar
    16    8    9 ar
    17    8   10 ar
    18    9   13 1
    19   10   20 1
    20   11   16 1
    21   11   18 2
    22   11   22 1
    23   12   17 1
    24   12   19 2
    25   12   22 1
    26   13   20 am
    27   13   21 2
    28   14   17 1
    29   14   29 1
    30   14   30 1
    31   14   31 1
    32   15   17 1
    33   15   32 1
    34   15   33 1
    35   15   34 1
    36   16   20 1
    37   16   35 1
    38   16   36 1
    39   17   37 1
    40   18   19 1
