@<TRIPOS>MOLECULE
*****
   74    76     0     0     0
SMALL
NO_CHARGES

@<TRIPOS>ATOM
      1 C1          0.8774    3.6971    1.0804 C.ar      1 <0>         0.0000
      2 C2          1.0431    3.7504    2.4662 C.ar      1 <0>         0.0000
      3 C3          0.2292    2.6099    0.4850 C.ar      1 <0>         0.0000
      4 C4         -0.0794    1.6309    2.6634 C.ar      1 <0>         0.0000
      5 C5          0.5423    2.7204    3.2753 C.ar      1 <0>         0.0000
      6 C6         -0.2375    1.5539    1.2752 C.ar      1 <0>         0.0000
      7 C7          0.3087    4.0943    5.4099 C.3       1 <0>         0.0000
      8 C8         -0.5310   -0.0769   -0.7184 C.3       1 <0>         0.0000
      9 C9         -1.2074    3.9742    5.3964 C.3       1 <0>         0.0000
     10 C10        -0.1392   -1.5398   -0.4977 C.3       1 <0>         0.0000
     11 C11         0.7015    2.7421    4.8010 C.3       1 <0>         0.0000
     12 C12        -1.0099    0.3690    0.6957 C.3       1 <0>         0.0000
     13 C13         2.0975    2.2556    5.1945 C.3       1 <0>         0.0000
     14 C14        -2.5134    0.6654    0.7402 C.3       1 <0>         0.0000
     15 C15        -3.8275    2.8848    5.5490 C.3       1 <0>         0.0000
     16 C16        -0.9154   -3.4272    2.0179 C.3       1 <0>         0.0000
     17 C17        -1.8989   -0.5218    5.2483 C.3       1 <0>         0.0000
     18 C18        -2.7179    0.4982    7.3878 C.3       1 <0>         0.0000
     19 C19        -4.2998    0.0243    5.4916 C.3       1 <0>         0.0000
     20 C20         2.8800   -2.4663    1.9074 C.3       1 <0>         0.0000
     21 C21         1.2771   -1.7795    3.7038 C.3       1 <0>         0.0000
     22 C22         1.6953   -4.2164    3.2498 C.3       1 <0>         0.0000
     23 C23        -2.6398    1.9439    5.2766 C.3       1 <0>         0.0000
     24 C24         0.4241   -2.8468    1.5384 C.3       1 <0>         0.0000
     25 C25        -2.8779    0.5039    5.8573 C.3       1 <0>         0.0000
     26 C26         1.5561   -2.8225    2.6100 C.3       1 <0>         0.0000
     27 N1         -1.4414    2.5924    5.8523 N.3       1 <0>         0.0000
     28 N2          0.2956   -1.5181    0.9003 N.3       1 <0>         0.0000
     29 O1         -0.2354    1.8429    5.4266 O.3       1 <0>         0.0000
     30 O2         -0.8214   -0.7991    1.5231 O.3       1 <0>         0.0000
     31 H1          1.2536    4.5070    0.4600 H         1 <0>         0.0000
     32 H2          1.5590    4.5998    2.9064 H         1 <0>         0.0000
     33 H3          0.0950    2.5983   -0.5934 H         1 <0>         0.0000
     34 H4         -0.4511    0.8261    3.2812 H         1 <0>         0.0000
     35 H5          0.6646    4.9580    4.8472 H         1 <0>         0.0000
     36 H6          0.6838    4.1571    6.4355 H         1 <0>         0.0000
     37 H7          0.3410    0.4961   -1.0348 H         1 <0>         0.0000
     38 H8         -1.3139    0.0368   -1.4726 H         1 <0>         0.0000
     39 H9         -1.6948    4.6703    6.0826 H         1 <0>         0.0000
     40 H10        -1.5828    4.1540    4.3770 H         1 <0>         0.0000
     41 H11        -0.9952   -2.2141   -0.6613 H         1 <0>         0.0000
     42 H12         0.6943   -1.8589   -1.1295 H         1 <0>         0.0000
     43 H13         2.2031    2.2548    6.2832 H         1 <0>         0.0000
     44 H14         2.8630    2.9040    4.7573 H         1 <0>         0.0000
     45 H15         2.2599    1.2398    4.8233 H         1 <0>         0.0000
     46 H16        -3.0780   -0.1751    0.3244 H         1 <0>         0.0000
     47 H17        -2.7381    1.5695    0.1662 H         1 <0>         0.0000
     48 H18        -2.8362    0.8273    1.7729 H         1 <0>         0.0000
     49 H19        -3.9807    3.0320    6.6223 H         1 <0>         0.0000
     50 H20        -4.7436    2.4771    5.1217 H         1 <0>         0.0000
     51 H21        -3.6771    3.8645    5.0917 H         1 <0>         0.0000
     52 H22        -1.2802   -2.9218    2.9138 H         1 <0>         0.0000
     53 H23        -0.8100   -4.4928    2.2353 H         1 <0>         0.0000
     54 H24        -1.6821   -3.3184    1.2458 H         1 <0>         0.0000
     55 H25        -1.9835   -0.5578    4.1564 H         1 <0>         0.0000
     56 H26        -0.8649   -0.2956    5.5007 H         1 <0>         0.0000
     57 H27        -2.1358   -1.5232    5.6276 H         1 <0>         0.0000
     58 H28        -3.4041    1.2003    7.8731 H         1 <0>         0.0000
     59 H29        -1.7005    0.7728    7.6754 H         1 <0>         0.0000
     60 H30        -2.9337   -0.5020    7.7811 H         1 <0>         0.0000
     61 H31        -5.0803    0.5595    6.0395 H         1 <0>         0.0000
     62 H32        -4.4028   -1.0384    5.7352 H         1 <0>         0.0000
     63 H33        -4.4975    0.1335    4.4178 H         1 <0>         0.0000
     64 H34         3.1467   -3.2221    1.1576 H         1 <0>         0.0000
     65 H35         2.8018   -1.4981    1.4058 H         1 <0>         0.0000
     66 H36         3.6995   -2.4149    2.6331 H         1 <0>         0.0000
     67 H37         0.3352   -1.9729    4.2232 H         1 <0>         0.0000
     68 H38         1.2274   -0.7751    3.2797 H         1 <0>         0.0000
     69 H39         2.0778   -1.7970    4.4527 H         1 <0>         0.0000
     70 H40         0.8320   -4.4710    3.8719 H         1 <0>         0.0000
     71 H41         2.5830   -4.2488    3.8912 H         1 <0>         0.0000
     72 H42         1.8086   -4.9989    2.4889 H         1 <0>         0.0000
     73 H43        -2.5239    1.8523    4.1834 H         1 <0>         0.0000
     74 H44         0.7919   -3.4939    0.7308 H         1 <0>         0.0000
@<TRIPOS>BOND
     1    1    2 ar
     2    1    3 ar
     3    1   31 1
     4    2    5 ar
     5    2   32 1
     6    3    6 ar
     7    3   33 1
     8    4    5 ar
     9    4    6 ar
    10    4   34 1
    11    5   11 1
    12    6   12 1
    13    7    9 1
    14    7   11 1
    15    7   35 1
    16    7   36 1
    17    8   10 1
    18    8   12 1
    19    8   37 1
    20    8   38 1
    21    9   27 1
    22    9   39 1
    23    9   40 1
    24   10   28 1
    25   10   41 1
    26   10   42 1
    27   11   13 1
    28   11   29 1
    29   12   14 1
    30   12   30 1
    31   13   43 1
    32   13   44 1
    33   13   45 1
    34   14   46 1
    35   14   47 1
    36   14   48 1
    37   15   23 1
    38   15   49 1
    39   15   50 1
    40   15   51 1
    41   16   24 1
    42   16   52 1
    43   16   53 1
    44   16   54 1
    45   17   25 1
    46   17   55 1
    47   17   56 1
    48   17   57 1
    49   18   25 1
    50   18   58 1
    51   18   59 1
    52   18   60 1
    53   19   25 1
    54   19   61 1
    55   19   62 1
    56   19   63 1
    57   20   26 1
    58   20   64 1
    59   20   65 1
    60   20   66 1
    61   21   26 1
    62   21   67 1
    63   21   68 1
    64   21   69 1
    65   22   26 1
    66   22   70 1
    67   22   71 1
    68   22   72 1
    69   23   25 1
    70   23   27 1
    71   23   73 1
    72   24   26 1
    73   24   28 1
    74   24   74 1
    75   27   29 1
    76   28   30 1
