@<TRIPOS>MOLECULE
*****
   54    56     0     0     0
SMALL
NO_CHARGES

@<TRIPOS>ATOM
      1 C1         -3.9525   -2.3857   -5.6303 C.ar      1 <0>         0.0000
      2 C2         -4.0007   -0.9989   -5.7077 C.ar      1 <0>         0.0000
      3 C3         -2.7313   -3.0447   -5.4198 C.ar      1 <0>         0.0000
      4 C4         -1.5990   -0.8737   -5.2873 C.ar      1 <0>         0.0000
      5 C5         -2.8314   -0.2488   -5.5547 C.ar      1 <0>         0.0000
      6 C6         -1.5625   -2.2852   -5.2431 C.ar      1 <0>         0.0000
      7 C7         -4.8580   -5.8473   -5.7192 C.2       1 <0>         0.0000
      8 C8         -3.2419   -6.3284   -3.7738 C.2       1 <0>         0.0000
      9 C9         -2.7148   -4.5454   -5.4441 C.2       1 <0>         0.0000
     10 C10        -4.7724   -7.3340   -5.9967 C.3       1 <0>         0.0000
     11 C11        -2.8421   -7.6626   -4.3819 C.3       1 <0>         0.0000
     12 C12        -3.3568   -7.8963   -5.8104 C.3       1 <0>         0.0000
     13 C13         3.7464    1.9701   -5.8787 C.3       1 <0>         0.0000
     14 C14         3.6146    1.3509   -4.4586 C.3       1 <0>         0.0000
     15 C15         2.4209    1.6323   -6.6181 C.3       1 <0>         0.0000
     16 C16         2.4146    0.3916   -4.5465 C.3       1 <0>         0.0000
     17 C17        -3.8582   -5.2656   -4.6972 C.3       1 <0>         0.0000
     18 C18         1.4688    1.1022   -5.5267 C.3       1 <0>         0.0000
     19 C19        -3.1694    3.2311   -7.8968 C.3       1 <0>         0.0000
     20 C20         0.3663    0.2305   -6.0872 C.3       1 <0>         0.0000
     21 C21        -3.0248    1.7530   -7.5412 C.3       1 <0>         0.0000
     22 O1         -5.6847   -5.1206   -6.2421 O.2       1 <0>         0.0000
     23 O2         -3.1076   -6.0856   -2.5889 O.2       1 <0>         0.0000
     24 O3         -1.8499   -5.1767   -6.0256 O.2       1 <0>         0.0000
     25 O4         -4.3872    1.8711   -5.2575 O.2       1 <0>         0.0000
     26 O5         -1.8673    2.2700   -5.1879 O.2       1 <0>         0.0000
     27 O6         -0.4812   -0.1710   -4.9845 O.3       1 <0>         0.0000
     28 S1         -3.0287    1.5536   -5.7275 S.o2      1 <0>         0.0000
     29 Cl1        -0.0315   -3.0312   -4.8727 Cl        1 <0>         0.0000
     30 H1         -4.8599   -2.9677   -5.7598 H         1 <0>         0.0000
     31 H2         -4.9461   -0.4883   -5.8602 H         1 <0>         0.0000
     32 H3         -5.4656   -7.8157   -5.2903 H         1 <0>         0.0000
     33 H4         -5.1695   -7.5133   -6.9990 H         1 <0>         0.0000
     34 H5         -1.7488   -7.7160   -4.3461 H         1 <0>         0.0000
     35 H6         -3.2115   -8.4296   -3.6922 H         1 <0>         0.0000
     36 H7         -2.6814   -7.4256   -6.5274 H         1 <0>         0.0000
     37 H8         -3.3614   -8.9687   -6.0261 H         1 <0>         0.0000
     38 H9          3.9045    3.0511   -5.8217 H         1 <0>         0.0000
     39 H10         4.6045    1.5554   -6.4161 H         1 <0>         0.0000
     40 H11         4.5306    0.8495   -4.1318 H         1 <0>         0.0000
     41 H12         3.4006    2.1361   -3.7251 H         1 <0>         0.0000
     42 H13         2.0029    2.4921   -7.1507 H         1 <0>         0.0000
     43 H14         2.5969    0.8469   -7.3644 H         1 <0>         0.0000
     44 H15         2.7244   -0.5720   -4.9735 H         1 <0>         0.0000
     45 H16         1.9481    0.1877   -3.5796 H         1 <0>         0.0000
     46 H17        -4.3898   -4.5505   -4.0692 H         1 <0>         0.0000
     47 H18         0.9901    1.9454   -5.0153 H         1 <0>         0.0000
     48 H19        -4.1058    3.6371   -7.5067 H         1 <0>         0.0000
     49 H20        -2.3388    3.8136   -7.4913 H         1 <0>         0.0000
     50 H21        -3.1719    3.3410   -8.9853 H         1 <0>         0.0000
     51 H22         0.7724   -0.6672   -6.5719 H         1 <0>         0.0000
     52 H23        -0.2319    0.7883   -6.8164 H         1 <0>         0.0000
     53 H24        -2.0850    1.3296   -7.9042 H         1 <0>         0.0000
     54 H25        -3.8563    1.1508   -7.9162 H         1 <0>         0.0000
@<TRIPOS>BOND
     1    1    2 ar
     2    1    3 ar
     3    1   30 1
     4    2    5 ar
     5    2   31 1
     6    3    6 ar
     7    3    9 1
     8    4    5 ar
     9    4    6 ar
    10    4   27 1
    11    5   28 1
    12    6   29 1
    13    7   10 1
    14    7   17 1
    15    7   22 2
    16    8   11 1
    17    8   17 1
    18    8   23 2
    19    9   17 1
    20    9   24 2
    21   10   12 1
    22   10   32 1
    23   10   33 1
    24   11   12 1
    25   11   34 1
    26   11   35 1
    27   12   36 1
    28   12   37 1
    29   13   14 1
    30   13   15 1
    31   13   38 1
    32   13   39 1
    33   14   16 1
    34   14   40 1
    35   14   41 1
    36   15   18 1
    37   15   42 1
    38   15   43 1
    39   16   18 1
    40   16   44 1
    41   16   45 1
    42   17   46 1
    43   18   20 1
    44   18   47 1
    45   19   21 1
    46   19   48 1
    47   19   49 1
    48   19   50 1
    49   20   27 1
    50   20   51 1
    51   20   52 1
    52   21   28 1
    53   21   53 1
    54   21   54 1
    55   25   28 2
    56   26   28 2
