@<TRIPOS>MOLECULE
*****
   18    18     0     0     0
SMALL
NO_CHARGES

@<TRIPOS>ATOM
      1 C1         -1.7209   -1.0568    1.3606 C.3       1 <0>         0.0000
      2 C2         -0.3677   -1.5540    1.7775 C.3       1 <0>         0.0000
      3 C3         -0.7747   -1.6097    0.3309 C.3       1 <0>         0.0000
      4 C4          0.1254    0.8491   -2.9519 C.3       1 <0>         0.0000
      5 N1         -1.1853   -1.4694   -2.8842 N.2       1 <0>         0.0000
      6 N2         -0.1390   -0.7184   -0.6584 N.pl3     1 <0>         0.0000
      7 O1         -2.0536    0.6648   -1.5429 O.2       1 <0>         0.0000
      8 S1         -0.9933   -0.1889   -2.0456 S.o       1 <0>         0.0000
      9 H1         -2.5828   -1.6563    1.6271 H         1 <0>         0.0000
     10 H2         -1.8937    0.0123    1.3880 H         1 <0>         0.0000
     11 H3          0.3654   -0.8180    2.0848 H         1 <0>         0.0000
     12 H4         -0.3192   -2.4879    2.3242 H         1 <0>         0.0000
     13 H5         -1.0122   -2.5923   -0.0646 H         1 <0>         0.0000
     14 H6          0.2819    1.7665   -2.3824 H         1 <0>         0.0000
     15 H7          1.0668    0.3124   -3.0788 H         1 <0>         0.0000
     16 H8         -0.3215    1.0725   -3.9218 H         1 <0>         0.0000
     17 H9         -1.8180   -2.1524   -2.4582 H         1 <0>         0.0000
     18 H10         0.7671   -1.1000   -0.9282 H         1 <0>         0.0000
@<TRIPOS>BOND
     1    1    2 1
     2    1    3 1
     3    1    9 1
     4    1   10 1
     5    2    3 1
     6    2   11 1
     7    2   12 1
     8    3    6 1
     9    3   13 1
    10    4    8 1
    11    4   14 1
    12    4   15 1
    13    4   16 1
    14    5    8 2
    15    5   17 1
    16    6    8 1
    17    6   18 1
    18    7    8 2
