@<TRIPOS>MOLECULE
*****
   33    35     0     0     0
SMALL
NO_CHARGES

@<TRIPOS>ATOM
      1 C1         -0.1729    0.8237   -2.0566 C.ar      1 <0>         0.0000
      2 C2         -0.3196    0.1017   -0.8650 C.ar      1 <0>         0.0000
      3 C3         -0.3982    0.1996   -3.2826 C.ar      1 <0>         0.0000
      4 C4         -0.6970   -1.2377   -0.9234 C.ar      1 <0>         0.0000
      5 C5         -0.7780   -1.1500   -3.3578 C.ar      1 <0>         0.0000
      6 C6         -0.9284   -1.8670   -2.1577 C.ar      1 <0>         0.0000
      7 C7         -3.4200   -4.3281   -1.1018 C.cat     1 <0>         0.0000
      8 C8         -0.9621   -1.8054   -4.7129 C.3       1 <0>         0.0000
      9 C9         -1.7507   -3.1160   -4.6496 C.3       1 <0>         0.0000
     10 C10        -1.2166   -4.0014   -3.5219 C.3       1 <0>         0.0000
     11 C11        -5.2439   -5.5575   -0.1836 C.3       1 <0>         0.0000
     12 C12        -4.0439   -6.3802    0.2880 C.3       1 <0>         0.0000
     13 C13        -1.3758   -3.3155   -2.1608 C.3       1 <0>         0.0000
     14 N1         -4.6750   -4.2731   -0.6250 N.pl3     1 <0>         0.0000
     15 N2         -2.8142   -3.3346   -1.7228 N.pl3     1 <0>         0.0000
     16 S1         -2.6448   -5.8683   -0.8059 S.3       1 <0>         0.0000
     17 H1          0.1215    1.8690   -2.0270 H         1 <0>         0.0000
     18 H2         -0.1342    0.5780    0.0933 H         1 <0>         0.0000
     19 H3         -0.2755    0.7650   -4.2036 H         1 <0>         0.0000
     20 H4         -0.8032   -1.8090   -0.0027 H         1 <0>         0.0000
     21 H5         -1.4432   -1.1024   -5.3999 H         1 <0>         0.0000
     22 H6          0.0320   -2.0073   -5.1332 H         1 <0>         0.0000
     23 H7         -2.8170   -2.9094   -4.4879 H         1 <0>         0.0000
     24 H8         -1.6793   -3.6430   -5.6051 H         1 <0>         0.0000
     25 H9         -1.7122   -4.9777   -3.5117 H         1 <0>         0.0000
     26 H10        -0.1472   -4.1905   -3.6714 H         1 <0>         0.0000
     27 H11        -5.7623   -6.0433   -1.0172 H         1 <0>         0.0000
     28 H12        -5.9508   -5.3865    0.6304 H         1 <0>         0.0000
     29 H13        -3.7700   -6.1572    1.3204 H         1 <0>         0.0000
     30 H14        -4.2037   -7.4514    0.1687 H         1 <0>         0.0000
     31 H15        -0.8271   -3.8687   -1.3919 H         1 <0>         0.0000
     32 H16        -5.2790   -3.4835   -0.8310 H         1 <0>         0.0000
     33 H17        -3.3303   -2.4727   -1.8795 H         1 <0>         0.0000
@<TRIPOS>BOND
     1    1    2 ar
     2    1    3 ar
     3    1   17 1
     4    2    4 ar
     5    2   18 1
     6    3    5 ar
     7    3   19 1
     8    4    6 ar
     9    4   20 1
    10    5    6 ar
    11    5    8 1
    12    6   13 1
    13    7   14 2
    14    7   15 1
    15    7   16 1
    16    8    9 1
    17    8   21 1
    18    8   22 1
    19    9   10 1
    20    9   23 1
    21    9   24 1
    22   10   13 1
    23   10   25 1
    24   10   26 1
    25   11   12 1
    26   11   14 1
    27   11   27 1
    28   11   28 1
    29   12   16 1
    30   12   29 1
    31   12   30 1
    32   13   15 1
    33   13   31 1
    34   14   32 1
    35   15   33 1
