@<TRIPOS>MOLECULE
*****
   34    34     0     0     0
SMALL
NO_CHARGES

@<TRIPOS>ATOM
      1 C1          2.3641   -0.4454    0.1613 C.ar      1 <0>         0.0000
      2 C2          1.4591    0.3222    0.9111 C.ar      1 <0>         0.0000
      3 C3          3.0302   -1.6059    2.1588 C.ar      1 <0>         0.0000
      4 C4          3.1584   -1.4140    0.7698 C.ar      1 <0>         0.0000
      5 C5          1.3334    0.1336    2.2870 C.ar      1 <0>         0.0000
      6 C6          2.1360   -0.8519    2.9181 C.ar      1 <0>         0.0000
      7 C7         -2.5913    2.2060    1.3641 C.3       1 <0>         0.0000
      8 C8          2.7525   -1.9437    4.9480 C.3       1 <0>         0.0000
      9 C9          4.0938   -2.2844   -0.0374 C.3       1 <0>         0.0000
     10 C10        -1.6333    1.1512    1.9293 C.3       1 <0>         0.0000
     11 C11         3.4634   -3.6356   -0.4070 C.3       1 <0>         0.0000
     12 C12        -0.3935    1.7944    2.5512 C.3       1 <0>         0.0000
     13 N1          4.3913   -4.4256   -1.2328 N.3       1 <0>         0.0000
     14 O1          1.9613   -0.9784    4.2692 O.3       1 <0>         0.0000
     15 O2          0.5068    0.8389    3.1179 O.3       1 <0>         0.0000
     16 H1          2.4414   -0.2767   -0.9101 H         1 <0>         0.0000
     17 H2          0.8585    1.0681    0.4032 H         1 <0>         0.0000
     18 H3          3.6492   -2.3560    2.6403 H         1 <0>         0.0000
     19 H4         -2.9163    2.9079    2.1408 H         1 <0>         0.0000
     20 H5         -2.1171    2.7901    0.5666 H         1 <0>         0.0000
     21 H6         -3.4870    1.7381    0.9439 H         1 <0>         0.0000
     22 H7          2.4639   -1.8800    5.9983 H         1 <0>         0.0000
     23 H8          3.8240   -1.7255    4.8526 H         1 <0>         0.0000
     24 H9          2.5548   -2.9584    4.5788 H         1 <0>         0.0000
     25 H10         5.0179   -2.4664    0.5278 H         1 <0>         0.0000
     26 H11         4.3854   -1.7790   -0.9634 H         1 <0>         0.0000
     27 H12        -1.3349    0.4543    1.1396 H         1 <0>         0.0000
     28 H13        -2.1340    0.5554    2.7005 H         1 <0>         0.0000
     29 H14         3.1433   -4.1463    0.5170 H         1 <0>         0.0000
     30 H15         2.5575   -3.4521   -0.9953 H         1 <0>         0.0000
     31 H16         0.1290    2.4356    1.8295 H         1 <0>         0.0000
     32 H17        -0.6855    2.4267    3.3948 H         1 <0>         0.0000
     33 H18         3.9491   -5.3033   -1.5019 H         1 <0>         0.0000
     34 H19         5.2097   -4.6770   -0.6791 H         1 <0>         0.0000
@<TRIPOS>BOND
     1    1    2 ar
     2    1    4 ar
     3    1   16 1
     4    2    5 ar
     5    2   17 1
     6    3    4 ar
     7    3    6 ar
     8    3   18 1
     9    4    9 1
    10    5    6 ar
    11    5   15 1
    12    6   14 1
    13    7   10 1
    14    7   19 1
    15    7   20 1
    16    7   21 1
    17    8   14 1
    18    8   22 1
    19    8   23 1
    20    8   24 1
    21    9   11 1
    22    9   25 1
    23    9   26 1
    24   10   12 1
    25   10   27 1
    26   10   28 1
    27   11   13 1
    28   11   29 1
    29   11   30 1
    30   12   15 1
    31   12   31 1
    32   12   32 1
    33   13   33 1
    34   13   34 1
