@<TRIPOS>MOLECULE
*****
   24    24     0     0     0
SMALL
NO_CHARGES

@<TRIPOS>ATOM
      1 C1          0.5822    0.8939    0.0903 C.2       1 <0>         0.0000
      2 C2          0.2720   -0.2812   -0.5073 C.2       1 <0>         0.0000
      3 C3          1.1786    2.1090   -0.4824 C.2       1 <0>         0.0000
      4 C4         -0.1613   -0.8566    1.8070 C.3       1 <0>         0.0000
      5 C5         -0.4921   -1.2615    0.3610 C.3       1 <0>         0.0000
      6 C6         -1.9989   -1.1878    0.0430 C.3       1 <0>         0.0000
      7 C7          3.6590    3.2097   -2.0536 C.3       1 <0>         0.0000
      8 C8          2.1789    3.1084   -2.3956 C.3       1 <0>         0.0000
      9 O1          1.2955    3.1507    0.1477 O.2       1 <0>         0.0000
     10 O2          0.4966   -0.5750   -1.8163 O.3       1 <0>         0.0000
     11 O3          1.5687    1.9521   -1.7680 O.3       1 <0>         0.0000
     12 S1          0.0875    0.9707    1.8100 S.3       1 <0>         0.0000
     13 H1         -0.9607   -1.1139    2.5052 H         1 <0>         0.0000
     14 H2          0.7680   -1.3307    2.1355 H         1 <0>         0.0000
     15 H3         -0.1369   -2.2862    0.1810 H         1 <0>         0.0000
     16 H4         -2.3868   -0.1935    0.2826 H         1 <0>         0.0000
     17 H5         -2.5506   -1.9284    0.6308 H         1 <0>         0.0000
     18 H6         -2.1949   -1.3833   -1.0165 H         1 <0>         0.0000
     19 H7          3.7981    3.3902   -0.9851 H         1 <0>         0.0000
     20 H8          4.1835    2.2903   -2.3313 H         1 <0>         0.0000
     21 H9          4.1082    4.0431   -2.6054 H         1 <0>         0.0000
     22 H10         2.0275    2.9401   -3.4640 H         1 <0>         0.0000
     23 H11         1.6389    4.0070   -2.0894 H         1 <0>         0.0000
     24 H12         0.2386   -1.4974   -1.9728 H         1 <0>         0.0000
@<TRIPOS>BOND
     1    1    2 2
     2    1    3 1
     3    1   12 1
     4    2    5 1
     5    2   10 1
     6    3    9 2
     7    3   11 1
     8    4    5 1
     9    4   12 1
    10    4   13 1
    11    4   14 1
    12    5    6 1
    13    5   15 1
    14    6   16 1
    15    6   17 1
    16    6   18 1
    17    7    8 1
    18    7   19 1
    19    7   20 1
    20    7   21 1
    21    8   11 1
    22    8   22 1
    23    8   23 1
    24   10   24 1
