@<TRIPOS>MOLECULE
*****
   31    31     0     0     0
SMALL
NO_CHARGES

@<TRIPOS>ATOM
      1 C1         -2.5498    0.0750    0.6115 C.2       1 <0>         0.0000
      2 C2         -0.2501    0.4296    1.6488 C.3       1 <0>         0.0000
      3 C3         -0.4580   -0.7978   -0.5473 C.3       1 <0>         0.0000
      4 C4          0.3312    1.6204    0.8710 C.3       1 <0>         0.0000
      5 C5          0.1317    0.4416   -1.2383 C.3       1 <0>         0.0000
      6 C6         -1.1446   -0.5060    0.8056 C.3       1 <0>         0.0000
      7 C7         -3.6582    3.1520   -0.9976 C.3       1 <0>         0.0000
      8 C8          3.3240    1.0289   -0.4787 C.3       1 <0>         0.0000
      9 C9         -3.8782    1.8493   -0.2522 C.3       1 <0>         0.0000
     10 N1          1.0059    1.2532   -0.3811 N.3       1 <0>         0.0000
     11 O1         -3.5573   -0.4876    1.0119 O.2       1 <0>         0.0000
     12 O2         -1.2937   -1.7369    1.5090 O.3       1 <0>         0.0000
     13 O3         -2.5682    1.2508   -0.0365 O.3       1 <0>         0.0000
     14 O4          2.1307    0.4066   -0.0145 O.3       1 <0>         0.0000
     15 H1          0.5701   -0.1972    2.0082 H         1 <0>         0.0000
     16 H2         -0.7990    0.7801    2.5302 H         1 <0>         0.0000
     17 H3         -1.1540   -1.3141   -1.2182 H         1 <0>         0.0000
     18 H4          0.3495   -1.4984   -0.3197 H         1 <0>         0.0000
     19 H5         -0.4530    2.3316    0.5974 H         1 <0>         0.0000
     20 H6          1.0564    2.1520    1.4935 H         1 <0>         0.0000
     21 H7          0.7156    0.1369   -2.1115 H         1 <0>         0.0000
     22 H8         -0.6595    1.1107   -1.5877 H         1 <0>         0.0000
     23 H9         -3.0324    3.8354   -0.4162 H         1 <0>         0.0000
     24 H10        -3.1748    2.9748   -1.9627 H         1 <0>         0.0000
     25 H11        -4.6221    3.6379   -1.1792 H         1 <0>         0.0000
     26 H12         4.1407    0.3622   -0.1862 H         1 <0>         0.0000
     27 H13         3.4665    2.0133   -0.0153 H         1 <0>         0.0000
     28 H14         3.3146    1.1450   -1.5698 H         1 <0>         0.0000
     29 H15        -4.4907    1.1442   -0.8201 H         1 <0>         0.0000
     30 H16        -4.3522    2.0026    0.7208 H         1 <0>         0.0000
     31 H17        -2.2496   -1.8638    1.6585 H         1 <0>         0.0000
@<TRIPOS>BOND
     1    1    6 1
     2    1   11 2
     3    1   13 1
     4    2    4 1
     5    2    6 1
     6    2   15 1
     7    2   16 1
     8    3    5 1
     9    3    6 1
    10    3   17 1
    11    3   18 1
    12    4   10 1
    13    4   19 1
    14    4   20 1
    15    5   10 1
    16    5   21 1
    17    5   22 1
    18    6   12 1
    19    7    9 1
    20    7   23 1
    21    7   24 1
    22    7   25 1
    23    8   14 1
    24    8   26 1
    25    8   27 1
    26    8   28 1
    27    9   13 1
    28    9   29 1
    29    9   30 1
    30   10   14 1
    31   12   31 1
