@<TRIPOS>MOLECULE
*****
   34    34     0     0     0
SMALL
NO_CHARGES

@<TRIPOS>ATOM
      1 C1          1.6570   -1.5750   -0.0411 C.ar      1 <0>         0.0000
      2 C2          0.5230   -1.3130    0.7405 C.ar      1 <0>         0.0000
      3 C3          3.0384   -1.5310    1.9227 C.ar      1 <0>         0.0000
      4 C4          2.9278   -1.6859    0.5290 C.ar      1 <0>         0.0000
      5 C5          0.6441   -1.1521    2.1236 C.ar      1 <0>         0.0000
      6 C6          1.9239   -1.2687    2.7128 C.ar      1 <0>         0.0000
      7 C7         -4.0876   -0.1688    3.0393 C.3       1 <0>         0.0000
      8 C8          1.5717   -2.1064    4.9020 C.3       1 <0>         0.0000
      9 C9          4.1388   -1.9580   -0.3390 C.3       1 <0>         0.0000
     10 C10        -2.6581   -0.3870    3.5468 C.3       1 <0>         0.0000
     11 C11         5.2379   -0.8820   -0.2747 C.3       1 <0>         0.0000
     12 C12        -1.6961   -0.7031    2.4107 C.3       1 <0>         0.0000
     13 N1          6.0082   -0.9796    0.9776 N.3       1 <0>         0.0000
     14 O1          2.0998   -1.0687    4.0673 O.3       1 <0>         0.0000
     15 O2         -0.3952   -0.8782    2.9736 O.3       1 <0>         0.0000
     16 H1          1.5358   -1.6912   -1.1160 H         1 <0>         0.0000
     17 H2         -0.4439   -1.2279    0.2574 H         1 <0>         0.0000
     18 H3          4.0108   -1.5825    2.4005 H         1 <0>         0.0000
     19 H4         -4.1375    0.6680    2.3333 H         1 <0>         0.0000
     20 H5         -4.4714   -1.0593    2.5282 H         1 <0>         0.0000
     21 H6         -4.7661    0.0559    3.8679 H         1 <0>         0.0000
     22 H7          1.8207   -1.8279    5.9285 H         1 <0>         0.0000
     23 H8          2.0410   -3.0695    4.6617 H         1 <0>         0.0000
     24 H9          0.4855   -2.1885    4.7970 H         1 <0>         0.0000
     25 H10         3.8103   -2.0517   -1.3800 H         1 <0>         0.0000
     26 H11         4.5886   -2.9251   -0.0734 H         1 <0>         0.0000
     27 H12        -2.6334   -1.2111    4.2687 H         1 <0>         0.0000
     28 H13        -2.2992    0.5052    4.0716 H         1 <0>         0.0000
     29 H14         5.8696   -0.9717   -1.1746 H         1 <0>         0.0000
     30 H15         4.7706    0.1079   -0.3075 H         1 <0>         0.0000
     31 H16        -2.0054   -1.6187    1.8865 H         1 <0>         0.0000
     32 H17        -1.6779    0.1174    1.6795 H         1 <0>         0.0000
     33 H18         6.6284   -0.1768    1.0681 H         1 <0>         0.0000
     34 H19         6.6063   -1.8044    0.9431 H         1 <0>         0.0000
@<TRIPOS>BOND
     1    1    2 ar
     2    1    4 ar
     3    1   16 1
     4    2    5 ar
     5    2   17 1
     6    3    4 ar
     7    3    6 ar
     8    3   18 1
     9    4    9 1
    10    5    6 ar
    11    5   15 1
    12    6   14 1
    13    7   10 1
    14    7   19 1
    15    7   20 1
    16    7   21 1
    17    8   14 1
    18    8   22 1
    19    8   23 1
    20    8   24 1
    21    9   11 1
    22    9   25 1
    23    9   26 1
    24   10   12 1
    25   10   27 1
    26   10   28 1
    27   11   13 1
    28   11   29 1
    29   11   30 1
    30   12   15 1
    31   12   31 1
    32   12   32 1
    33   13   33 1
    34   13   34 1
