@<TRIPOS>MOLECULE
*****
   56    59     0     0     0
SMALL
NO_CHARGES

@<TRIPOS>ATOM
      1 C1          5.3930   -2.6835    1.5872 C.ar      1 <0>         0.0000
      2 C2          4.4350   -2.3008    2.5261 C.ar      1 <0>         0.0000
      3 C3          5.2077   -2.3804    0.2384 C.ar      1 <0>         0.0000
      4 C4          3.2917   -1.6150    2.1161 C.ar      1 <0>         0.0000
      5 C5          4.0644   -1.6946   -0.1716 C.ar      1 <0>         0.0000
      6 C6          0.3001   -3.3856    1.1110 C.ar      1 <0>         0.0000
      7 C7          0.9785   -3.4023   -1.2077 C.ar      1 <0>         0.0000
      8 C8         -1.1770   -0.6904   -1.5514 C.ar      1 <0>         0.0000
      9 C9          0.2339   -4.7789    1.1017 C.ar      1 <0>         0.0000
     10 C10         0.9124   -4.7955   -1.2171 C.ar      1 <0>         0.0000
     11 C11        -2.3037    0.0521   -1.9068 C.ar      1 <0>         0.0000
     12 C12        -2.0208    1.4263    0.0548 C.ar      1 <0>         0.0000
     13 C13         0.6724   -2.6973   -0.0436 C.ar      1 <0>         0.0000
     14 C14         3.1063   -1.3119    0.7672 C.ar      1 <0>         0.0000
     15 C15        -0.4511   -0.3819   -0.3889 C.ar      1 <0>         0.0000
     16 C16        -0.8868    0.6885    0.4270 C.ar      1 <0>         0.0000
     17 C17         0.5401   -5.4838   -0.0624 C.ar      1 <0>         0.0000
     18 C18        -2.7242    1.1090   -1.1058 C.ar      1 <0>         0.0000
     19 C19         0.7429   -1.2121   -0.0336 C.2       1 <0>         0.0000
     20 C20         1.8937   -0.5845    0.3329 C.2       1 <0>         0.0000
     21 C21        -0.1482    1.0500    1.6930 C.3       1 <0>         0.0000
     22 C22         2.0512    0.9235    0.3283 C.3       1 <0>         0.0000
     23 C23         1.2453    1.6286    1.4271 C.3       1 <0>         0.0000
     24 C24         2.2866  -10.8421    1.8767 C.3       1 <0>         0.0000
     25 C25         1.3552   -8.8733    0.8681 C.3       1 <0>         0.0000
     26 C26         0.7447   -7.5144    1.1584 C.3       1 <0>         0.0000
     27 N1          1.6706   -9.5587    2.1423 N.3       1 <0>         0.0000
     28 O1         -3.8223    1.8333   -1.4553 O.3       1 <0>         0.0000
     29 O2          0.4755   -6.8433   -0.0715 O.3       1 <0>         0.0000
     30 H1          6.2826   -3.2186    1.9063 H         1 <0>         0.0000
     31 H2          4.5786   -2.5377    3.5762 H         1 <0>         0.0000
     32 H3          5.9530   -2.6793   -0.4930 H         1 <0>         0.0000
     33 H4          2.5540   -1.3234    2.8599 H         1 <0>         0.0000
     34 H5          3.9340   -1.4654   -1.2267 H         1 <0>         0.0000
     35 H6          0.0585   -2.8501    2.0261 H         1 <0>         0.0000
     36 H7          1.2703   -2.8798   -2.1156 H         1 <0>         0.0000
     37 H8         -0.8691   -1.5082   -2.1994 H         1 <0>         0.0000
     38 H9         -0.0567   -5.3096    2.0042 H         1 <0>         0.0000
     39 H10         1.1520   -5.3392   -2.1269 H         1 <0>         0.0000
     40 H11        -2.8477   -0.2002   -2.8132 H         1 <0>         0.0000
     41 H12        -2.3598    2.2550    0.6725 H         1 <0>         0.0000
     42 H13        -0.7253    1.7733    2.2829 H         1 <0>         0.0000
     43 H14        -0.0752    0.1571    2.3278 H         1 <0>         0.0000
     44 H15         3.1068    1.2079    0.4291 H         1 <0>         0.0000
     45 H16         1.7522    1.3126   -0.6550 H         1 <0>         0.0000
     46 H17         1.1503    2.6865    1.1503 H         1 <0>         0.0000
     47 H18         1.8119    1.6092    2.3668 H         1 <0>         0.0000
     48 H19         3.2253  -10.6913    1.3235 H         1 <0>         0.0000
     49 H20         2.4997  -11.3504    2.8286 H         1 <0>         0.0000
     50 H21         1.6025  -11.4597    1.2762 H         1 <0>         0.0000
     51 H22         0.6649   -9.5054    0.3004 H         1 <0>         0.0000
     52 H23         2.2849   -8.7602    0.3024 H         1 <0>         0.0000
     53 H24         1.4485   -6.9019    1.7305 H         1 <0>         0.0000
     54 H25        -0.1896   -7.6050    1.7220 H         1 <0>         0.0000
     55 H26         0.8049   -9.6831    2.6514 H         1 <0>         0.0000
     56 H27        -4.2003    1.4935   -2.2821 H         1 <0>         0.0000
@<TRIPOS>BOND
     1    1    3 ar
     2    1    2 ar
     3    1   30 1
     4    2    4 ar
     5    2   31 1
     6    3    5 ar
     7    3   32 1
     8    4   14 ar
     9    4   33 1
    10    5   14 ar
    11    5   34 1
    12    6    9 ar
    13    6   13 ar
    14    6   35 1
    15    7   10 ar
    16    7   13 ar
    17    7   36 1
    18    8   11 ar
    19    8   15 ar
    20    8   37 1
    21    9   17 ar
    22    9   38 1
    23   10   17 ar
    24   10   39 1
    25   11   18 ar
    26   11   40 1
    27   12   16 ar
    28   12   18 ar
    29   12   41 1
    30   13   19 1
    31   14   20 1
    32   15   16 ar
    33   15   19 1
    34   16   21 1
    35   17   29 1
    36   18   28 1
    37   19   20 2
    38   20   22 1
    39   21   23 1
    40   21   42 1
    41   21   43 1
    42   22   23 1
    43   22   44 1
    44   22   45 1
    45   23   46 1
    46   23   47 1
    47   24   27 1
    48   24   48 1
    49   24   49 1
    50   24   50 1
    51   25   26 1
    52   25   27 1
    53   25   51 1
    54   25   52 1
    55   26   29 1
    56   26   53 1
    57   26   54 1
    58   27   55 1
    59   28   56 1
