@<TRIPOS>MOLECULE
*****
   38    38     0     0     0
SMALL
NO_CHARGES

@<TRIPOS>ATOM
      1 C1          4.3560   -2.9985    2.5068 C.2       1 <0>         0.0000
      2 C2          4.6137   -4.3175    2.0878 C.2       1 <0>         0.0000
      3 C3          2.9871   -2.8897    2.4759 C.2       1 <0>         0.0000
      4 C4          2.3233   -0.6887    1.9988 C.2       1 <0>         0.0000
      5 C5          0.7283   -5.6155    2.8060 C.3       1 <0>         0.0000
      6 C6          0.8493   -4.8317    0.4024 C.3       1 <0>         0.0000
      7 C7          1.5026    1.6157    1.6228 C.3       1 <0>         0.0000
      8 C8          0.4269    0.2429    3.3756 C.3       1 <0>         0.0000
      9 C9          7.8764   -5.9079    0.1937 C.3       1 <0>         0.0000
     10 C10         5.9248   -4.9707    1.9376 C.3       1 <0>         0.0000
     11 C11         1.1470   -4.4861    1.8626 C.3       1 <0>         0.0000
     12 N1          3.4982   -4.9980    1.8112 N.2       1 <0>         0.0000
     13 N2          2.5262   -4.1031    2.0570 N.pl3     1 <0>         0.0000
     14 N3          1.4423    0.3460    2.3326 N.am      1 <0>         0.0000
     15 O1          3.1802   -0.6115    1.1191 O.2       1 <0>         0.0000
     16 O2          5.3283   -6.0303   -0.3763 O.2       1 <0>         0.0000
     17 O3          6.4586   -3.7738   -0.3241 O.2       1 <0>         0.0000
     18 O4          2.1245   -1.8313    2.7795 O.3       1 <0>         0.0000
     19 S1          6.2872   -5.1123    0.2112 S.o2      1 <0>         0.0000
     20 H1          5.0627   -2.2327    2.7919 H         1 <0>         0.0000
     21 H2          1.2909   -6.5359    2.6167 H         1 <0>         0.0000
     22 H3         -0.3357   -5.8445    2.6831 H         1 <0>         0.0000
     23 H4          0.8936   -5.3324    3.8515 H         1 <0>         0.0000
     24 H5          1.4279   -5.7052    0.0822 H         1 <0>         0.0000
     25 H6          1.1130   -3.9943   -0.2523 H         1 <0>         0.0000
     26 H7         -0.2106   -5.0574    0.2437 H         1 <0>         0.0000
     27 H8          0.8360    1.5797    0.7485 H         1 <0>         0.0000
     28 H9          1.1831    2.4264    2.2942 H         1 <0>         0.0000
     29 H10         2.5345    1.8008    1.2896 H         1 <0>         0.0000
     30 H11         0.8519    0.5715    4.3355 H         1 <0>         0.0000
     31 H12        -0.4306    0.8814    3.1167 H         1 <0>         0.0000
     32 H13         0.0936   -0.8019    3.4607 H         1 <0>         0.0000
     33 H14         8.1847   -6.0383   -0.8448 H         1 <0>         0.0000
     34 H15         8.5855   -5.2723    0.7262 H         1 <0>         0.0000
     35 H16         7.7825   -6.8753    0.6892 H         1 <0>         0.0000
     36 H17         5.9545   -5.9890    2.3610 H         1 <0>         0.0000
     37 H18         6.7500   -4.4007    2.3976 H         1 <0>         0.0000
     38 H19         0.5395   -3.6083    2.1183 H         1 <0>         0.0000
@<TRIPOS>BOND
     1    1    2 1
     2    1    3 2
     3    1   20 1
     4    2   10 1
     5    2   12 2
     6    3   13 1
     7    3   18 1
     8    4   14 am
     9    4   15 2
    10    4   18 1
    11    5   11 1
    12    5   21 1
    13    5   22 1
    14    5   23 1
    15    6   11 1
    16    6   24 1
    17    6   25 1
    18    6   26 1
    19    7   14 1
    20    7   27 1
    21    7   28 1
    22    7   29 1
    23    8   14 1
    24    8   30 1
    25    8   31 1
    26    8   32 1
    27    9   19 1
    28    9   33 1
    29    9   34 1
    30    9   35 1
    31   10   19 1
    32   10   36 1
    33   10   37 1
    34   11   13 1
    35   11   38 1
    36   12   13 1
    37   16   19 2
    38   17   19 2
