@<TRIPOS>MOLECULE
*****
   25    26     0     0     0
SMALL
NO_CHARGES

@<TRIPOS>ATOM
      1 C1         -3.4736    1.2317   -2.7102 C.ar      1 <0>         0.0000
      2 C2         -5.4910   -0.1411   -2.8469 C.ar      1 <0>         0.0000
      3 C3         -2.7008    0.0935   -2.4396 C.ar      1 <0>         0.0000
      4 C4         -4.7032   -1.2602   -2.5796 C.ar      1 <0>         0.0000
      5 C5         -3.3329   -1.1608   -2.3775 C.ar      1 <0>         0.0000
      6 C6         -4.8499    1.0921   -2.9066 C.ar      1 <0>         0.0000
      7 C7          2.3184    2.5657   -1.0799 C.3       1 <0>         0.0000
      8 C8          1.5273    1.9318    0.0588 C.3       1 <0>         0.0000
      9 C9          0.7847    1.0688   -1.9314 C.3       1 <0>         0.0000
     10 C10        -0.6784    1.3450   -2.2568 C.3       1 <0>         0.0000
     11 O1          1.5093    2.2612   -2.2250 O.3       1 <0>         0.0000
     12 O2          0.9933    0.7561   -0.5622 O.3       1 <0>         0.0000
     13 O3         -1.3617    0.0916   -2.2275 O.3       1 <0>         0.0000
     14 F1         -5.2785   -2.4773   -2.5125 F         1 <0>         0.0000
     15 F2         -2.6087   -2.2639   -2.1224 F         1 <0>         0.0000
     16 Br1        -5.8859    2.6622   -3.2701 Br        1 <0>         0.0000
     17 H1         -3.0181    2.2111   -2.7700 H         1 <0>         0.0000
     18 H2         -6.5581   -0.2542   -2.9987 H         1 <0>         0.0000
     19 H3          2.4136    3.6514   -1.0094 H         1 <0>         0.0000
     20 H4          3.3111    2.1101   -1.1836 H         1 <0>         0.0000
     21 H5          2.1358    1.6186    0.9093 H         1 <0>         0.0000
     22 H6          0.7215    2.5926    0.4067 H         1 <0>         0.0000
     23 H7          1.1544    0.2210   -2.5211 H         1 <0>         0.0000
     24 H8         -0.7464    1.7978   -3.2531 H         1 <0>         0.0000
     25 H9         -1.0959    2.0339   -1.5132 H         1 <0>         0.0000
@<TRIPOS>BOND
     1    1    3 ar
     2    1    6 ar
     3    1   17 1
     4    2    4 ar
     5    2    6 ar
     6    2   18 1
     7    3    5 ar
     8    3   13 1
     9    4    5 ar
    10    4   14 1
    11    5   15 1
    12    6   16 1
    13    7    8 1
    14    7   11 1
    15    7   19 1
    16    7   20 1
    17    8   12 1
    18    8   21 1
    19    8   22 1
    20    9   10 1
    21    9   12 1
    22    9   11 1
    23    9   23 1
    24   10   13 1
    25   10   24 1
    26   10   25 1
