@<TRIPOS>MOLECULE
*****
   25    26     0     0     0
SMALL
NO_CHARGES

@<TRIPOS>ATOM
      1 C1          4.3727   -0.3686   -0.2913 C.ar      1 <0>         0.0000
      2 C2          4.9170   -1.5410   -0.8254 C.ar      1 <0>         0.0000
      3 C3          3.8074   -0.3836    0.9845 C.ar      1 <0>         0.0000
      4 C4          4.8933   -2.7236   -0.0831 C.ar      1 <0>         0.0000
      5 C5          7.0475   -2.5324    4.3615 C.2       1 <0>         0.0000
      6 C6          5.0543   -2.8529    5.2831 C.2       1 <0>         0.0000
      7 C7          6.3282   -3.3901    5.2425 C.2       1 <0>         0.0000
      8 C8          3.7887   -1.5599    1.7410 C.ar      1 <0>         0.0000
      9 C9          4.3345   -2.7312    1.1972 C.ar      1 <0>         0.0000
     10 C10         3.9489   -0.9616    4.0401 C.3       1 <0>         0.0000
     11 N1          6.2797   -1.5511    3.8886 N.2       1 <0>         0.0000
     12 N2          5.0717   -1.7426    4.4702 N.pl3     1 <0>         0.0000
     13 N3          6.8476   -4.4839    5.9679 N.pl3     1 <0>         0.0000
     14 O1          3.1930   -1.5751    2.9870 O.3       1 <0>         0.0000
     15 Cl1         4.3222   -4.2169    2.1199 Cl        1 <0>         0.0000
     16 H1          4.3807    0.5519   -0.8681 H         1 <0>         0.0000
     17 H2          5.3566   -1.5403   -1.8187 H         1 <0>         0.0000
     18 H3          3.3644    0.5135    1.4088 H         1 <0>         0.0000
     19 H4          5.3105   -3.6411   -0.4863 H         1 <0>         0.0000
     20 H5          8.0889   -2.5945    4.0676 H         1 <0>         0.0000
     21 H6          4.1544   -3.1716    5.7910 H         1 <0>         0.0000
     22 H7          3.2429   -0.8528    4.8642 H         1 <0>         0.0000
     23 H8          4.3330    0.0115    3.7251 H         1 <0>         0.0000
     24 H9          7.5662   -4.9738    5.4439 H         1 <0>         0.0000
     25 H10         6.1254   -5.1480    6.2286 H         1 <0>         0.0000
@<TRIPOS>BOND
     1    1    2 ar
     2    1    3 ar
     3    1   16 1
     4    2    4 ar
     5    2   17 1
     6    3    8 ar
     7    3   18 1
     8    4    9 ar
     9    4   19 1
    10    5    7 1
    11    5   11 2
    12    5   20 1
    13    6    7 2
    14    6   12 1
    15    6   21 1
    16    7   13 1
    17    8    9 ar
    18    8   14 1
    19    9   15 1
    20   10   12 1
    21   10   14 1
    22   10   22 1
    23   10   23 1
    24   11   12 1
    25   13   24 1
    26   13   25 1
