@<TRIPOS>MOLECULE
*****
   32    34     0     0     0
SMALL
NO_CHARGES

@<TRIPOS>ATOM
      1 C1          6.9135   -3.1528    5.3659 C.1       1 <0>         0.0000
      2 C2          7.7722    3.9911    2.3543 C.ar      1 <0>         0.0000
      3 C3          8.0818    4.5483    3.5986 C.ar      1 <0>         0.0000
      4 C4          6.6540   -7.8348    2.9796 C.2       1 <0>         0.0000
      5 C5          7.6831    2.6074    2.2307 C.ar      1 <0>         0.0000
      6 C6          8.3029    3.7149    4.6965 C.ar      1 <0>         0.0000
      7 C7          6.9265   -6.5462    2.4624 C.2       1 <0>         0.0000
      8 C8          6.4256   -7.8084    4.3388 C.2       1 <0>         0.0000
      9 C9          7.9004    1.7648    3.3372 C.ar      1 <0>         0.0000
     10 C10         8.2207    2.3172    4.6001 C.ar      1 <0>         0.0000
     11 C11         6.9045   -5.5435    3.4289 C.2       1 <0>         0.0000
     12 C12         7.7865    0.3126    3.1157 C.2       1 <0>         0.0000
     13 C13         7.4483   -1.7418    3.4366 C.2       1 <0>         0.0000
     14 C14         7.1521   -4.1654    3.1362 C.2       1 <0>         0.0000
     15 C15         7.1666   -3.0720    3.9594 C.2       1 <0>         0.0000
     16 C16         8.4930    1.4837    5.8316 C.3       1 <0>         0.0000
     17 N1          6.7064   -3.2446    6.5092 N.1       1 <0>         0.0000
     18 N2          7.4791   -0.6156    4.0965 N.2       1 <0>         0.0000
     19 N3          7.9456   -0.2172    1.9147 N.2       1 <0>         0.0000
     20 O1          7.7134   -1.5940    2.1213 O.3       1 <0>         0.0000
     21 S1          6.5381   -6.2238    5.0052 S.3       1 <0>         0.0000
     22 H1          7.5962    4.6277    1.4916 H         1 <0>         0.0000
     23 H2          8.1516    5.6269    3.7150 H         1 <0>         0.0000
     24 H3          6.6260   -8.7413    2.3851 H         1 <0>         0.0000
     25 H4          7.4350    2.1593    1.2737 H         1 <0>         0.0000
     26 H5          8.5509    4.1565    5.6586 H         1 <0>         0.0000
     27 H6          7.1347   -6.3381    1.4175 H         1 <0>         0.0000
     28 H7          6.1951   -8.6444    4.9879 H         1 <0>         0.0000
     29 H8          7.3611   -3.9682    2.0871 H         1 <0>         0.0000
     30 H9          7.5911    0.9742    6.1791 H         1 <0>         0.0000
     31 H10         9.2314    0.7009    5.6375 H         1 <0>         0.0000
     32 H11         8.8689    2.1187    6.6381 H         1 <0>         0.0000
@<TRIPOS>BOND
     1    1   15 1
     2    1   17 3
     3    2    3 ar
     4    2    5 ar
     5    2   22 1
     6    3    6 ar
     7    3   23 1
     8    4    7 1
     9    4    8 2
    10    4   24 1
    11    5    9 ar
    12    5   25 1
    13    6   10 ar
    14    6   26 1
    15    7   11 2
    16    7   27 1
    17    8   21 1
    18    8   28 1
    19    9   10 ar
    20    9   12 1
    21   10   16 1
    22   11   14 1
    23   11   21 1
    24   12   18 1
    25   12   19 2
    26   13   15 1
    27   13   18 2
    28   13   20 1
    29   14   15 2
    30   14   29 1
    31   16   30 1
    32   16   31 1
    33   16   32 1
    34   19   20 1
