@<TRIPOS>MOLECULE
*****
   32    34     0     0     0
SMALL
NO_CHARGES

@<TRIPOS>ATOM
      1 C1          7.4888   -3.7173    4.5967 C.1       1 <0>         0.0000
      2 C2          1.8050   -0.7654   -0.0908 C.ar      1 <0>         0.0000
      3 C3          0.4724   -0.8689    0.3172 C.ar      1 <0>         0.0000
      4 C4          2.8089   -1.2800    0.7251 C.ar      1 <0>         0.0000
      5 C5          0.1664   -1.4808    1.5344 C.ar      1 <0>         0.0000
      6 C6          9.2711   -2.9799    0.1799 C.2       1 <0>         0.0000
      7 C7          9.1417   -2.6580   -1.1386 C.2       1 <0>         0.0000
      8 C8          6.9755   -2.5346    0.0811 C.2       1 <0>         0.0000
      9 C9          2.5062   -1.8969    1.9536 C.ar      1 <0>         0.0000
     10 C10         8.0237   -2.9153    0.9115 C.2       1 <0>         0.0000
     11 C11         1.1584   -2.0024    2.3777 C.ar      1 <0>         0.0000
     12 C12         3.6402   -2.4085    2.7403 C.2       1 <0>         0.0000
     13 C13         5.6293   -2.9729    3.1970 C.2       1 <0>         0.0000
     14 C14         8.0115   -3.2467    2.3167 C.2       1 <0>         0.0000
     15 C15         7.0477   -3.2936    3.2923 C.2       1 <0>         0.0000
     16 C16         0.7469   -2.6459    3.6792 C.3       1 <0>         0.0000
     17 N1          7.8788   -4.0631    5.6389 N.1       1 <0>         0.0000
     18 N2          4.9185   -2.4961    2.2086 N.2       1 <0>         0.0000
     19 N3          3.5708   -2.8120    3.9961 N.2       1 <0>         0.0000
     20 O1          4.8858   -3.1877    4.3064 O.3       1 <0>         0.0000
     21 S1          7.4926   -2.2678   -1.5310 S.3       1 <0>         0.0000
     22 H1          2.0595   -0.2882   -1.0332 H         1 <0>         0.0000
     23 H2         -0.3256   -0.4755   -0.3072 H         1 <0>         0.0000
     24 H3          3.8473   -1.1993    0.4239 H         1 <0>         0.0000
     25 H4         -0.8728   -1.5589    1.8440 H         1 <0>         0.0000
     26 H5         10.2162   -3.2581    0.6358 H         1 <0>         0.0000
     27 H6          9.9077   -2.6259   -1.9024 H         1 <0>         0.0000
     28 H7          5.9428   -2.4066    0.3688 H         1 <0>         0.0000
     29 H8          8.9945   -3.5339    2.6837 H         1 <0>         0.0000
     30 H9          1.1452   -3.6603    3.7723 H         1 <0>         0.0000
     31 H10         1.1313   -2.0897    4.5390 H         1 <0>         0.0000
     32 H11        -0.3428   -2.6898    3.7515 H         1 <0>         0.0000
@<TRIPOS>BOND
     1    1   15 1
     2    1   17 3
     3    2    3 ar
     4    2    4 ar
     5    2   22 1
     6    3    5 ar
     7    3   23 1
     8    4    9 ar
     9    4   24 1
    10    5   11 ar
    11    5   25 1
    12    6    7 2
    13    6   10 1
    14    6   26 1
    15    7   21 1
    16    7   27 1
    17    8   10 2
    18    8   21 1
    19    8   28 1
    20    9   11 ar
    21    9   12 1
    22   10   14 1
    23   11   16 1
    24   12   18 1
    25   12   19 2
    26   13   15 1
    27   13   18 2
    28   13   20 1
    29   14   15 2
    30   14   29 1
    31   16   30 1
    32   16   31 1
    33   16   32 1
    34   19   20 1
