@<TRIPOS>MOLECULE
*****
   32    34     0     0     0
SMALL
NO_CHARGES

@<TRIPOS>ATOM
      1 C1          8.2118   -4.1574    4.3515 C.1       1 <0>         0.0000
      2 C2          1.2722   -2.2736    0.5321 C.ar      1 <0>         0.0000
      3 C3          0.7678   -1.0606    1.0094 C.ar      1 <0>         0.0000
      4 C4          2.4416   -2.7914    1.0847 C.ar      1 <0>         0.0000
      5 C5          1.4326   -0.3871    2.0367 C.ar      1 <0>         0.0000
      6 C6          7.2845    0.3655    3.2208 C.2       1 <0>         0.0000
      7 C7          7.5667    1.6968    3.1293 C.2       1 <0>         0.0000
      8 C8          9.3869    0.4517    4.2445 C.2       1 <0>         0.0000
      9 C9          3.1184   -2.1085    2.1109 C.ar      1 <0>         0.0000
     10 C10         8.3358   -0.3823    3.8698 C.2       1 <0>         0.0000
     11 C11         2.6113   -0.8869    2.6093 C.ar      1 <0>         0.0000
     12 C12         4.3487   -2.7224    2.6410 C.2       1 <0>         0.0000
     13 C13         6.3027   -2.9600    3.4064 C.2       1 <0>         0.0000
     14 C14         8.4575   -1.7951    4.1461 C.2       1 <0>         0.0000
     15 C15         7.6539   -2.8897    3.9531 C.2       1 <0>         0.0000
     16 C16         3.2634   -0.1191    3.7371 C.3       1 <0>         0.0000
     17 N1          8.6934   -5.1647    4.6848 N.1       1 <0>         0.0000
     18 N2          5.4560   -2.0180    3.0772 N.2       1 <0>         0.0000
     19 N3          4.4980   -4.0325    2.7056 N.2       1 <0>         0.0000
     20 O1          5.7960   -4.1981    3.2083 O.3       1 <0>         0.0000
     21 S1          9.1118    2.0907    3.8295 S.3       1 <0>         0.0000
     22 H1          0.7625   -2.8091   -0.2639 H         1 <0>         0.0000
     23 H2         -0.1426   -0.6418    0.5885 H         1 <0>         0.0000
     24 H3          2.8504   -3.7296    0.7225 H         1 <0>         0.0000
     25 H4          1.0238    0.5476    2.4132 H         1 <0>         0.0000
     26 H5          6.3755   -0.0919    2.8585 H         1 <0>         0.0000
     27 H6          6.9594    2.4792    2.6922 H         1 <0>         0.0000
     28 H7         10.3043    0.1608    4.7416 H         1 <0>         0.0000
     29 H8          9.4116   -2.0497    4.6022 H         1 <0>         0.0000
     30 H9          3.5827   -0.7757    4.5502 H         1 <0>         0.0000
     31 H10         4.1559    0.4138    3.3964 H         1 <0>         0.0000
     32 H11         2.5660    0.6176    4.1445 H         1 <0>         0.0000
@<TRIPOS>BOND
     1    1   15 1
     2    1   17 3
     3    2    3 ar
     4    2    4 ar
     5    2   22 1
     6    3    5 ar
     7    3   23 1
     8    4    9 ar
     9    4   24 1
    10    5   11 ar
    11    5   25 1
    12    6    7 2
    13    6   10 1
    14    6   26 1
    15    7   21 1
    16    7   27 1
    17    8   10 2
    18    8   21 1
    19    8   28 1
    20    9   11 ar
    21    9   12 1
    22   10   14 1
    23   11   16 1
    24   12   18 1
    25   12   19 2
    26   13   15 1
    27   13   18 2
    28   13   20 1
    29   14   15 2
    30   14   29 1
    31   16   30 1
    32   16   31 1
    33   16   32 1
    34   19   20 1
