@<TRIPOS>MOLECULE
*****
   26    27     0     0     0
SMALL
NO_CHARGES

@<TRIPOS>ATOM
      1 C1          0.7302    1.3235    2.6034 C.ar      1 <0>         0.0000
      2 C2         -0.1339    0.8942    1.5808 C.ar      1 <0>         0.0000
      3 C3          0.3434    2.3121    3.4998 C.ar      1 <0>         0.0000
      4 C4         -0.9292    2.9071    3.4055 C.ar      1 <0>         0.0000
      5 C5         -1.3837    1.5154    1.4676 C.ar      1 <0>         0.0000
      6 C6         -1.7884    2.5081    2.3793 C.ar      1 <0>         0.0000
      7 C7         -0.4736   -1.5023    0.4560 C.3       1 <0>         0.0000
      8 C8          0.8978   -2.2100    0.5242 C.3       1 <0>         0.0000
      9 C9          0.3291   -0.1799    0.6253 C.3       1 <0>         0.0000
     10 C10         2.4242    2.2805    4.6999 C.3       1 <0>         0.0000
     11 N1          1.5610   -0.9534    1.0221 N.3       1 <0>         0.0000
     12 O1         -1.3039    3.8641    4.2976 O.3       1 <0>         0.0000
     13 O2          1.1075    2.8070    4.5308 O.3       1 <0>         0.0000
     14 Br1        -2.5359    1.0386    0.0135 Br        1 <0>         0.0000
     15 Br2        -3.4884    3.3598    2.2861 Br        1 <0>         0.0000
     16 H1          1.7241    0.8979    2.6627 H         1 <0>         0.0000
     17 H2         -1.0616   -1.6148   -0.4565 H         1 <0>         0.0000
     18 H3         -1.1059   -1.7138    1.3231 H         1 <0>         0.0000
     19 H4          0.9893   -3.0690    1.1955 H         1 <0>         0.0000
     20 H5          1.2962   -2.4865   -0.4571 H         1 <0>         0.0000
     21 H6          0.5148    0.2778   -0.3542 H         1 <0>         0.0000
     22 H7          2.8494    2.8066    5.5549 H         1 <0>         0.0000
     23 H8          3.0379    2.4664    3.8115 H         1 <0>         0.0000
     24 H9          2.3917    1.2052    4.9101 H         1 <0>         0.0000
     25 H10         1.5776   -1.0174    2.0401 H         1 <0>         0.0000
     26 H11        -0.5550    3.9937    4.9079 H         1 <0>         0.0000
@<TRIPOS>BOND
     1    1    2 ar
     2    1    3 ar
     3    1   16 1
     4    2    5 ar
     5    2    9 1
     6    3    4 ar
     7    3   13 1
     8    4    6 ar
     9    4   12 1
    10    5    6 ar
    11    5   14 1
    12    6   15 1
    13    7    8 1
    14    7    9 1
    15    7   17 1
    16    7   18 1
    17    8   11 1
    18    8   19 1
    19    8   20 1
    20    9   11 1
    21    9   21 1
    22   10   13 1
    23   10   22 1
    24   10   23 1
    25   10   24 1
    26   11   25 1
    27   12   26 1
