@<TRIPOS>MOLECULE
*****
   38    40     0     0     0
SMALL
NO_CHARGES

@<TRIPOS>ATOM
      1 C1         -3.1418    2.2018   -9.9469 C.ar      1 <0>         0.0000
      2 C2         -2.2861    1.8572   -8.9013 C.ar      1 <0>         0.0000
      3 C3         -4.2642    3.0059   -9.7234 C.ar      1 <0>         0.0000
      4 C4         -3.6544    3.1620   -7.3691 C.ar      1 <0>         0.0000
      5 C5         -0.7064    1.3290   -4.6508 C.2       1 <0>         0.0000
      6 C6         -2.5530    2.3336   -7.6118 C.ar      1 <0>         0.0000
      7 C7         -4.5024    3.4753   -8.4312 C.ar      1 <0>         0.0000
      8 C8          0.2636    1.5660   -5.6800 C.2       1 <0>         0.0000
      9 C9         -1.9180    1.6087   -5.2700 C.2       1 <0>         0.0000
     10 C10        -0.5282    0.8901   -3.2781 C.2       1 <0>         0.0000
     11 C11        -0.1675    0.3469   -0.4987 C.3       1 <0>         0.0000
     12 C12         2.1820    0.5077   -1.0437 C.3       1 <0>         0.0000
     13 C13        -0.1150    1.7747    0.0541 C.3       1 <0>         0.0000
     14 C14         2.1884    1.9243   -0.4650 C.3       1 <0>         0.0000
     15 C15         1.7503    1.4355   -5.5958 C.3       1 <0>         0.0000
     16 N1         -0.3169    1.9505   -6.8128 N.2       1 <0>         0.0000
     17 N2          0.6539    0.6626   -2.8092 N.2       1 <0>         0.0000
     18 N3         -1.6646    1.9881   -6.5611 N.pl3     1 <0>         0.0000
     19 N4          0.8469    0.1596   -1.5497 N.pl3     1 <0>         0.0000
     20 O1          1.1920    2.0682    0.5520 O.3       1 <0>         0.0000
     21 Cl1        -5.8904    4.5077   -8.1291 Cl        1 <0>         0.0000
     22 Cl2        -3.5091    1.4237   -4.6213 Cl        1 <0>         0.0000
     23 H1         -2.9404    1.8342  -10.9490 H         1 <0>         0.0000
     24 H2         -1.4138    1.2353   -9.0658 H         1 <0>         0.0000
     25 H3         -4.9368    3.2680  -10.5334 H         1 <0>         0.0000
     26 H4         -3.8416    3.5711   -6.3842 H         1 <0>         0.0000
     27 H5         -1.4440    0.7602   -2.6972 H         1 <0>         0.0000
     28 H6          0.0738   -0.3586    0.3026 H         1 <0>         0.0000
     29 H7         -1.1618    0.0861   -0.8667 H         1 <0>         0.0000
     30 H8          2.8921    0.4176   -1.8683 H         1 <0>         0.0000
     31 H9          2.4476   -0.2127   -0.2626 H         1 <0>         0.0000
     32 H10        -0.3906    2.4988   -0.7269 H         1 <0>         0.0000
     33 H11        -0.8000    1.8943    0.8980 H         1 <0>         0.0000
     34 H12         3.1460    2.1537    0.0106 H         1 <0>         0.0000
     35 H13         2.0094    2.6526   -1.2709 H         1 <0>         0.0000
     36 H14         2.0342    0.4217   -5.2989 H         1 <0>         0.0000
     37 H15         2.1943    1.6733   -6.5654 H         1 <0>         0.0000
     38 H16         2.1565    2.1084   -4.8346 H         1 <0>         0.0000
@<TRIPOS>BOND
     1    1    2 ar
     2    1    3 ar
     3    1   23 1
     4    2    6 ar
     5    2   24 1
     6    3    7 ar
     7    3   25 1
     8    4    6 ar
     9    4    7 ar
    10    4   26 1
    11    5    8 1
    12    5    9 2
    13    5   10 1
    14    6   18 1
    15    7   21 1
    16    8   15 1
    17    8   16 2
    18    9   18 1
    19    9   22 1
    20   10   17 2
    21   10   27 1
    22   11   13 1
    23   11   19 1
    24   11   28 1
    25   11   29 1
    26   12   14 1
    27   12   19 1
    28   12   30 1
    29   12   31 1
    30   13   20 1
    31   13   32 1
    32   13   33 1
    33   14   20 1
    34   14   34 1
    35   14   35 1
    36   15   36 1
    37   15   37 1
    38   15   38 1
    39   16   18 1
    40   17   19 1
