@<TRIPOS>MOLECULE
*****
   20    21     0     0     0
SMALL
NO_CHARGES

@<TRIPOS>ATOM
      1 C1          1.8175   -0.8038   -0.0444 C.ar      1 <0>         0.0000
      2 C2          1.8264   -1.3638    2.7047 C.ar      1 <0>         0.0000
      3 C3         -3.5002    1.6445    0.7830 C.2       1 <0>         0.0000
      4 C4         -2.7010    2.4153    1.5965 C.2       1 <0>         0.0000
      5 C5          0.6105   -0.7458    0.6728 C.ar      1 <0>         0.0000
      6 C6          3.0038   -1.1017    0.6028 C.ar      1 <0>         0.0000
      7 C7          0.6467   -1.0459    2.0378 C.ar      1 <0>         0.0000
      8 C8          3.0076   -1.3779    1.9742 C.ar      1 <0>         0.0000
      9 C9         -1.6118    0.5386    0.4914 C.2       1 <0>         0.0000
     10 C10        -0.6476   -0.4392   -0.0907 C.2       1 <0>         0.0000
     11 N1         -2.8768    0.6011    0.1583 N.2       1 <0>         0.0000
     12 O1         -0.8357   -0.9282   -1.1935 O.2       1 <0>         0.0000
     13 F1          4.1670   -1.1350   -0.0756 F         1 <0>         0.0000
     14 F2         -0.5028   -1.0789    2.7498 F         1 <0>         0.0000
     15 F3          4.1678   -1.6705    2.5834 F         1 <0>         0.0000
     16 S1         -1.0943    1.8003    1.6031 S.3       1 <0>         0.0000
     17 H1          1.8185   -0.6117   -1.1126 H         1 <0>         0.0000
     18 H2          1.8241   -1.6062    3.7619 H         1 <0>         0.0000
     19 H3         -4.5581    1.8146    0.6140 H         1 <0>         0.0000
     20 H4         -2.9726    3.2933    2.1686 H         1 <0>         0.0000
@<TRIPOS>BOND
     1    1    5 ar
     2    1    6 ar
     3    1   17 1
     4    2    7 ar
     5    2    8 ar
     6    2   18 1
     7    3    4 2
     8    3   11 1
     9    3   19 1
    10    4   16 1
    11    4   20 1
    12    5    7 ar
    13    5   10 1
    14    6    8 ar
    15    6   13 1
    16    7   14 1
    17    8   15 1
    18    9   10 1
    19    9   11 2
    20    9   16 1
    21   10   12 2
