@<TRIPOS>MOLECULE
*****
   36    38     0     0     0
SMALL
NO_CHARGES

@<TRIPOS>ATOM
      1 C1         -3.1441   -1.3036    6.3127 C.ar      1 <0>         0.0000
      2 C2         -2.2626   -0.2624    6.6238 C.ar      1 <0>         0.0000
      3 C3         -2.7543   -2.3010    5.4116 C.ar      1 <0>         0.0000
      4 C4          2.1389   -0.6830    0.6843 C.ar      1 <0>         0.0000
      5 C5          0.7607   -0.4317    0.8529 C.ar      1 <0>         0.0000
      6 C6          2.9379   -1.0593    1.7595 C.ar      1 <0>         0.0000
      7 C7         -0.9968   -0.2083    6.0340 C.ar      1 <0>         0.0000
      8 C8         -1.4882   -2.2554    4.8245 C.ar      1 <0>         0.0000
      9 C9          0.1093   -0.5522    2.0860 C.ar      1 <0>         0.0000
     10 C10         2.3181   -1.1944    3.0096 C.ar      1 <0>         0.0000
     11 C11         0.9276   -0.9610    3.1566 C.ar      1 <0>         0.0000
     12 C12        -0.6160   -1.2066    5.1343 C.ar      1 <0>         0.0000
     13 C13         1.8916   -1.5116    5.1038 C.2       1 <0>         0.0000
     14 C14        -1.3622   -0.2321    2.2133 C.3       1 <0>         0.0000
     15 C15         1.2101   -2.8869    7.1559 C.3       1 <0>         0.0000
     16 C16         2.1122   -1.7935    6.5686 C.3       1 <0>         0.0000
     17 N1          2.8803   -1.5286    4.2355 N.2       1 <0>         0.0000
     18 N2          0.6738   -1.1710    4.5184 N.pl3     1 <0>         0.0000
     19 N3          1.9427   -0.5390    7.3378 N.3       1 <0>         0.0000
     20 H1         -4.1283   -1.3399    6.7722 H         1 <0>         0.0000
     21 H2         -2.5602    0.5111    7.3268 H         1 <0>         0.0000
     22 H3         -3.4324   -3.1151    5.1698 H         1 <0>         0.0000
     23 H4          2.5795   -0.5651   -0.3022 H         1 <0>         0.0000
     24 H5          0.1763   -0.1171   -0.0088 H         1 <0>         0.0000
     25 H6          4.0038   -1.2377    1.6519 H         1 <0>         0.0000
     26 H7         -0.2909    0.5749    6.2843 H         1 <0>         0.0000
     27 H8         -1.1661   -3.0261    4.1298 H         1 <0>         0.0000
     28 H9         -1.9662   -1.1305    2.3770 H         1 <0>         0.0000
     29 H10        -1.5624    0.4391    3.0535 H         1 <0>         0.0000
     30 H11        -1.7212    0.2507    1.3004 H         1 <0>         0.0000
     31 H12         0.1743   -2.5555    7.2425 H         1 <0>         0.0000
     32 H13         1.2423   -3.7876    6.5360 H         1 <0>         0.0000
     33 H14         1.5671   -3.1559    8.1567 H         1 <0>         0.0000
     34 H15         3.1468   -2.1610    6.6004 H         1 <0>         0.0000
     35 H16         2.6732    0.1162    7.0600 H         1 <0>         0.0000
     36 H17         2.0934   -0.7369    8.3270 H         1 <0>         0.0000
@<TRIPOS>BOND
     1    1    3 ar
     2    1    2 ar
     3    1   20 1
     4    2    7 ar
     5    2   21 1
     6    3    8 ar
     7    3   22 1
     8    4    5 ar
     9    4    6 ar
    10    4   23 1
    11    5    9 ar
    12    5   24 1
    13    6   10 ar
    14    6   25 1
    15    7   12 ar
    16    7   26 1
    17    8   12 ar
    18    8   27 1
    19    9   11 ar
    20    9   14 1
    21   10   11 ar
    22   10   17 1
    23   11   18 1
    24   12   18 1
    25   13   16 1
    26   13   17 2
    27   13   18 1
    28   14   28 1
    29   14   29 1
    30   14   30 1
    31   15   16 1
    32   15   31 1
    33   15   32 1
    34   15   33 1
    35   16   19 1
    36   16   34 1
    37   19   35 1
    38   19   36 1
