@<TRIPOS>MOLECULE
*****
   43    45     0     0     0
SMALL
NO_CHARGES

@<TRIPOS>ATOM
      1 C1         -1.0445    0.4193    3.6552 C.ar      1 <0>         0.0000
      2 C2         -1.9567    0.3874    4.7323 C.ar      1 <0>         0.0000
      3 C3         -2.2215    2.2622    2.6663 C.ar      1 <0>         0.0000
      4 C4         -1.1498    1.3376    2.6114 C.ar      1 <0>         0.0000
      5 C5         -3.0290    1.2728    4.8094 C.ar      1 <0>         0.0000
      6 C6         -2.6728    3.3426    1.8130 C.2       1 <0>         0.0000
      7 C7         -3.1325    2.1934    3.7549 C.ar      1 <0>         0.0000
      8 C8         -3.8150    3.8662    2.3818 C.2       1 <0>         0.0000
      9 C9         -2.4255    2.9147   -0.6727 C.2       1 <0>         0.0000
     10 C10        -0.6631    4.0922   -2.0272 C.3       1 <0>         0.0000
     11 C11        -2.0112    2.2706   -2.9904 C.3       1 <0>         0.0000
     12 C12         0.6635    3.3232   -2.0214 C.3       1 <0>         0.0000
     13 C13        -0.8534    1.2752   -3.0981 C.3       1 <0>         0.0000
     14 C14        -0.1588    1.3127    1.4712 C.3       1 <0>         0.0000
     15 C15        -4.0326    1.2565    5.9354 C.3       1 <0>         0.0000
     16 C16        -4.7357    4.9469    1.9133 C.3       1 <0>         0.0000
     17 C17        -2.0554    3.8024    0.5277 C.3       1 <0>         0.0000
     18 N1         -4.0890    3.1739    3.5540 N.pl3     1 <0>         0.0000
     19 N2         -1.8106    3.2001   -1.8756 N.am      1 <0>         0.0000
     20 O1         -3.2520    2.0103   -0.5714 O.2       1 <0>         0.0000
     21 S1          0.7562    2.1082   -3.3909 S.3       1 <0>         0.0000
     22 H1         -0.2339   -0.3059    3.6383 H         1 <0>         0.0000
     23 H2         -1.8231   -0.3536    5.5174 H         1 <0>         0.0000
     24 H3         -0.6661    4.8438   -1.2375 H         1 <0>         0.0000
     25 H4         -0.7676    4.6235   -2.9801 H         1 <0>         0.0000
     26 H5         -2.0954    2.8496   -3.9166 H         1 <0>         0.0000
     27 H6         -2.9466    1.7387   -2.8140 H         1 <0>         0.0000
     28 H7          1.5035    4.0086   -2.1688 H         1 <0>         0.0000
     29 H8          0.8012    2.8106   -1.0641 H         1 <0>         0.0000
     30 H9         -0.7965    0.6678   -2.1897 H         1 <0>         0.0000
     31 H10        -1.0013    0.6050   -3.9497 H         1 <0>         0.0000
     32 H11        -0.6655    1.1987    0.5071 H         1 <0>         0.0000
     33 H12         0.4388    2.2312    1.4290 H         1 <0>         0.0000
     34 H13         0.5377    0.4769    1.5808 H         1 <0>         0.0000
     35 H14        -4.0563    2.2149    6.4707 H         1 <0>         0.0000
     36 H15        -5.0484    1.0616    5.5672 H         1 <0>         0.0000
     37 H16        -3.7925    0.4785    6.6648 H         1 <0>         0.0000
     38 H17        -5.6941    4.5335    1.5758 H         1 <0>         0.0000
     39 H18        -4.9449    5.6732    2.7081 H         1 <0>         0.0000
     40 H19        -4.3028    5.4917    1.0719 H         1 <0>         0.0000
     41 H20        -2.3673    4.8279    0.2990 H         1 <0>         0.0000
     42 H21        -0.9682    3.8409    0.6298 H         1 <0>         0.0000
     43 H22        -4.8630    3.3703    4.1716 H         1 <0>         0.0000
@<TRIPOS>BOND
     1    1    2 ar
     2    1    4 ar
     3    1   22 1
     4    2    5 ar
     5    2   23 1
     6    3    4 ar
     7    3    6 1
     8    3    7 ar
     9    4   14 1
    10    5    7 ar
    11    5   15 1
    12    6    8 2
    13    6   17 1
    14    7   18 1
    15    8   16 1
    16    8   18 1
    17    9   17 1
    18    9   19 am
    19    9   20 2
    20   10   12 1
    21   10   19 1
    22   10   24 1
    23   10   25 1
    24   11   13 1
    25   11   19 1
    26   11   26 1
    27   11   27 1
    28   12   21 1
    29   12   28 1
    30   12   29 1
    31   13   21 1
    32   13   30 1
    33   13   31 1
    34   14   32 1
    35   14   33 1
    36   14   34 1
    37   15   35 1
    38   15   36 1
    39   15   37 1
    40   16   38 1
    41   16   39 1
    42   16   40 1
    43   17   41 1
    44   17   42 1
    45   18   43 1
