@<TRIPOS>MOLECULE
*****
   19    20     0     0     0
SMALL
NO_CHARGES

@<TRIPOS>ATOM
      1 C1         -0.4643   -1.5889   -1.2988 C.ar      1 <0>         0.0000
      2 C2          1.3900    0.0141   -1.3374 C.ar      1 <0>         0.0000
      3 C3          1.0009   -1.3889   -3.2753 C.ar      1 <0>         0.0000
      4 C4          0.2977   -0.5902   -0.7035 C.ar      1 <0>         0.0000
      5 C5         -0.0954   -1.9734   -2.5881 C.ar      1 <0>         0.0000
      6 C6          1.7394   -0.3855   -2.6232 C.ar      1 <0>         0.0000
      7 C7          0.3810   -2.8064   -4.8505 C.2       1 <0>         0.0000
      8 C8         -0.8727    0.8123    0.7862 C.3       1 <0>         0.0000
      9 N1          1.2362   -1.8847   -4.5444 N.2       1 <0>         0.0000
     10 O1          0.0029   -0.2141    0.6214 O.3       1 <0>         0.0000
     11 F1         -0.4410    1.9606    0.2176 F         1 <0>         0.0000
     12 F2         -1.0180    1.0161    2.0991 F         1 <0>         0.0000
     13 F3         -2.0895    0.5455    0.2564 F         1 <0>         0.0000
     14 S1         -0.8367   -3.1898   -3.6086 S.3       1 <0>         0.0000
     15 S2          0.4421   -3.6155   -6.4124 S.3       1 <0>         0.0000
     16 Br1         3.2225    0.4297   -3.4948 Br        1 <0>         0.0000
     17 H1         -1.2980   -2.0341   -0.7672 H         1 <0>         0.0000
     18 H2          1.9516    0.7829   -0.8194 H         1 <0>         0.0000
     19 H3         -0.6132   -4.4282   -6.1964 H         1 <0>         0.0000
@<TRIPOS>BOND
     1    1    4 ar
     2    1    5 ar
     3    1   17 1
     4    2    4 ar
     5    2    6 ar
     6    2   18 1
     7    3    5 ar
     8    3    6 ar
     9    3    9 1
    10    4   10 1
    11    5   14 1
    12    6   16 1
    13    7    9 2
    14    7   14 1
    15    7   15 1
    16    8   10 1
    17    8   11 1
    18    8   12 1
    19    8   13 1
    20   15   19 1
