@<TRIPOS>MOLECULE
*****
   33    35     0     0     0
SMALL
NO_CHARGES

@<TRIPOS>ATOM
      1 C1          6.2079   -0.0617    2.8406 C.ar      1 <0>         0.0000
      2 C2          5.2682   -0.9577    3.3516 C.ar      1 <0>         0.0000
      3 C3          4.6033    0.6531    1.1628 C.ar      1 <0>         0.0000
      4 C4          3.6404   -0.2423    1.6596 C.ar      1 <0>         0.0000
      5 C5          5.8662    0.7400    1.7458 C.ar      1 <0>         0.0000
      6 C6          4.0178   -1.0276    2.7560 C.ar      1 <0>         0.0000
      7 C7          0.6766    0.0869   -0.3261 C.2       1 <0>         0.0000
      8 C8          0.2189   -0.8820    0.5666 C.2       1 <0>         0.0000
      9 C9          2.3278   -0.3015    1.0178 C.2       1 <0>         0.0000
     10 C10         0.0044    0.7869   -1.4589 C.2       1 <0>         0.0000
     11 C11        -1.0587   -1.6472    0.7352 C.3       1 <0>         0.0000
     12 C12        -2.2227   -1.1204   -0.1075 C.3       1 <0>         0.0000
     13 C13        -1.8637   -0.9594   -1.5911 C.3       1 <0>         0.0000
     14 C14         6.8574    1.7181    1.1686 C.3       1 <0>         0.0000
     15 N1          1.9784    0.4283   -0.0231 N.2       1 <0>         0.0000
     16 N2          1.2827   -1.1131    1.4093 N.pl3     1 <0>         0.0000
     17 N3         -1.2115    0.3088   -1.8975 N.am      1 <0>         0.0000
     18 O1          0.5038    1.7814   -1.9806 O.2       1 <0>         0.0000
     19 F1          3.1157   -1.9147    3.2782 F         1 <0>         0.0000
     20 F2          8.0356    1.7087    1.8390 F         1 <0>         0.0000
     21 F3          7.1365    1.4439   -0.1310 F         1 <0>         0.0000
     22 F4          6.3883    2.9908    1.2046 F         1 <0>         0.0000
     23 H1          7.1919    0.0109    3.2899 H         1 <0>         0.0000
     24 H2          5.4914   -1.5975    4.1993 H         1 <0>         0.0000
     25 H3          4.3269    1.2713    0.3142 H         1 <0>         0.0000
     26 H4         -0.8748   -2.6981    0.4714 H         1 <0>         0.0000
     27 H5         -1.3471   -1.6450    1.7940 H         1 <0>         0.0000
     28 H6         -3.0556   -1.8254   -0.0134 H         1 <0>         0.0000
     29 H7         -2.5680   -0.1547    0.2752 H         1 <0>         0.0000
     30 H8         -1.2510   -1.8110   -1.9212 H         1 <0>         0.0000
     31 H9         -2.7800   -0.9805   -2.1861 H         1 <0>         0.0000
     32 H10         1.2978   -1.7596    2.1883 H         1 <0>         0.0000
     33 H11        -1.5475    0.8266   -2.7008 H         1 <0>         0.0000
@<TRIPOS>BOND
     1    1    2 ar
     2    1    5 ar
     3    1   23 1
     4    2    6 ar
     5    2   24 1
     6    3    4 ar
     7    3    5 ar
     8    3   25 1
     9    4    6 ar
    10    4    9 1
    11    5   14 1
    12    6   19 1
    13    7    8 2
    14    7   10 1
    15    7   15 1
    16    8   11 1
    17    8   16 1
    18    9   15 2
    19    9   16 1
    20   10   17 am
    21   10   18 2
    22   11   12 1
    23   11   26 1
    24   11   27 1
    25   12   13 1
    26   12   28 1
    27   12   29 1
    28   13   17 1
    29   13   30 1
    30   13   31 1
    31   14   20 1
    32   14   21 1
    33   14   22 1
    34   16   32 1
    35   17   33 1
