@<TRIPOS>MOLECULE
*****
   37    40     0     0     0
SMALL
NO_CHARGES

@<TRIPOS>ATOM
      1 C1          0.6586   -4.1183    3.0433 C.ar      1 <0>         0.0000
      2 C2          1.1611   -2.8227    3.2262 C.ar      1 <0>         0.0000
      3 C3          0.9661   -4.8527    1.8911 C.ar      1 <0>         0.0000
      4 C4          2.3300   -9.6658   -3.8650 C.ar      1 <0>         0.0000
      5 C5          2.8548  -10.1995   -5.0578 C.ar      1 <0>         0.0000
      6 C6          1.9846   -2.2319    2.2575 C.ar      1 <0>         0.0000
      7 C7          3.1403   -7.4270   -4.4230 C.ar      1 <0>         0.0000
      8 C8          1.7868   -4.2658    0.9248 C.ar      1 <0>         0.0000
      9 C9          2.4612   -8.3069   -3.5350 C.ar      1 <0>         0.0000
     10 C10         3.5072   -9.3222   -5.9012 C.ar      1 <0>         0.0000
     11 C11         3.6424   -7.9657   -5.5834 C.ar      1 <0>         0.0000
     12 C12         2.2749   -2.9774    1.1264 C.ar      1 <0>         0.0000
     13 C13         2.2804   -4.7919   -0.3839 C.2       1 <0>         0.0000
     14 C14         1.9308   -7.7623   -2.2656 C.2       1 <0>         0.0000
     15 C15         4.7486   -8.3531   -7.4946 C.3       1 <0>         0.0000
     16 C16         0.9378   -8.5440   -1.4318 C.3       1 <0>         0.0000
     17 N1          3.0440   -4.0265   -1.1071 N.2       1 <0>         0.0000
     18 N2          2.3597   -6.5881   -1.9288 N.2       1 <0>         0.0000
     19 N3          1.9032   -6.0438   -0.7635 N.pl3     1 <0>         0.0000
     20 O1          2.6481   -1.4688   -1.0648 O.2       1 <0>         0.0000
     21 O2          4.6887   -2.4214    0.0868 O.2       1 <0>         0.0000
     22 O3          4.0734   -9.5724   -7.1263 O.3       1 <0>         0.0000
     23 O4          4.2954   -7.3192   -6.6104 O.3       1 <0>         0.0000
     24 S1          3.2865   -2.5466   -0.3098 S.o2      1 <0>         0.0000
     25 H1          0.0218   -4.5591    3.8050 H         1 <0>         0.0000
     26 H2          0.9094   -2.2710    4.1275 H         1 <0>         0.0000
     27 H3          0.5625   -5.8557    1.7746 H         1 <0>         0.0000
     28 H4          1.8374  -10.3511   -3.1845 H         1 <0>         0.0000
     29 H5          2.7524  -11.2515   -5.3030 H         1 <0>         0.0000
     30 H6          2.3802   -1.2290    2.3872 H         1 <0>         0.0000
     31 H7          3.2496   -6.3765   -4.1795 H         1 <0>         0.0000
     32 H8          5.8307   -8.4920   -7.3735 H         1 <0>         0.0000
     33 H9          4.4864   -8.0940   -8.5225 H         1 <0>         0.0000
     34 H10         1.3919   -8.9028   -0.4992 H         1 <0>         0.0000
     35 H11         0.0774   -7.9159   -1.1713 H         1 <0>         0.0000
     36 H12         0.5418   -9.4077   -1.9617 H         1 <0>         0.0000
     37 H13         1.3188   -6.5778   -0.1288 H         1 <0>         0.0000
@<TRIPOS>BOND
     1    1    2 ar
     2    1    3 ar
     3    1   25 1
     4    2    6 ar
     5    2   26 1
     6    3    8 ar
     7    3   27 1
     8    4    5 ar
     9    4    9 ar
    10    4   28 1
    11    5   10 ar
    12    5   29 1
    13    6   12 ar
    14    6   30 1
    15    7    9 ar
    16    7   11 ar
    17    7   31 1
    18    8   12 ar
    19    8   13 1
    20    9   14 1
    21   10   11 ar
    22   10   22 1
    23   11   23 1
    24   12   24 1
    25   13   17 2
    26   13   19 1
    27   14   16 1
    28   14   18 2
    29   15   22 1
    30   15   23 1
    31   15   32 1
    32   15   33 1
    33   16   34 1
    34   16   35 1
    35   16   36 1
    36   17   24 1
    37   18   19 1
    38   19   37 1
    39   20   24 2
    40   21   24 2
