@<TRIPOS>MOLECULE
*****
   14    13     0     0     0
SMALL
NO_CHARGES

@<TRIPOS>ATOM
      1 C1         -1.7403   -0.8771   -2.3013 C.2       1 <0>         0.0000
      2 C2         -1.5160    1.1077    0.6298 C.2       1 <0>         0.0000
      3 C3          0.3930    1.2235    2.1859 C.3       1 <0>         0.0000
      4 N1         -1.2436   -0.3686   -1.2340 N.2       1 <0>         0.0000
      5 N2         -0.2776    0.7254    0.9946 N.pl3     1 <0>         0.0000
      6 N3         -1.9869    0.5231   -0.5352 N.pl3     1 <0>         0.0000
      7 S1         -2.4849    2.1976    1.4542 S.2       1 <0>         0.0000
      8 H1         -1.1304   -1.5894   -2.8487 H         1 <0>         0.0000
      9 H2         -2.7371   -0.6304   -2.6818 H         1 <0>         0.0000
     10 H3          0.5062    2.3107    2.1427 H         1 <0>         0.0000
     11 H4          1.3789    0.7571    2.2406 H         1 <0>         0.0000
     12 H5         -0.1773    0.9765    3.0863 H         1 <0>         0.0000
     13 H6          0.1851    0.0527    0.3929 H         1 <0>         0.0000
     14 H7         -2.9245    0.7955   -0.8275 H         1 <0>         0.0000
@<TRIPOS>BOND
     1    1    4 2
     2    1    8 1
     3    1    9 1
     4    2    5 1
     5    2    6 1
     6    2    7 2
     7    3    5 1
     8    3   10 1
     9    3   11 1
    10    3   12 1
    11    4    6 1
    12    5   13 1
    13    6   14 1
