@<TRIPOS>MOLECULE
*****
   20    21     0     0     0
SMALL
NO_CHARGES

@<TRIPOS>ATOM
      1 C1          1.6606   -0.4842    1.5223 C.3       1 <0>         0.0000
      2 C2          0.1909   -0.0890    1.8174 C.3       1 <0>         0.0000
      3 C3          1.7613   -0.4745   -0.0247 C.3       1 <0>         0.0000
      4 C4         -0.4681   -0.3665    0.5134 C.3       1 <0>         0.0000
      5 C5          0.5783    0.3441   -0.4018 C.3       1 <0>         0.0000
      6 C6         -0.8561    0.2506   -0.7830 C.3       1 <0>         0.0000
      7 C7         -1.7229    1.4665   -0.7739 C.3       1 <0>         0.0000
      8 O1         -1.1558   -0.6555   -1.8593 O.3       1 <0>         0.0000
      9 H1          2.3468    0.2367    1.9796 H         1 <0>         0.0000
     10 H2          1.9012   -1.4787    1.9124 H         1 <0>         0.0000
     11 H3         -0.2216   -0.6940    2.6306 H         1 <0>         0.0000
     12 H4          0.1094    0.9669    2.1002 H         1 <0>         0.0000
     13 H5          2.7027   -0.0237   -0.3534 H         1 <0>         0.0000
     14 H6          1.7039   -1.4889   -0.4357 H         1 <0>         0.0000
     15 H7         -0.6098   -1.4500    0.4700 H         1 <0>         0.0000
     16 H8          0.8612    1.3856   -0.2281 H         1 <0>         0.0000
     17 H9         -1.9334    1.8191   -1.7952 H         1 <0>         0.0000
     18 H10        -1.2466    2.2970   -0.2308 H         1 <0>         0.0000
     19 H11        -2.6907    1.2679   -0.2884 H         1 <0>         0.0000
     20 H12        -0.3505   -1.1698   -2.0019 H         1 <0>         0.0000
@<TRIPOS>BOND
     1    1    2 1
     2    1    3 1
     3    1    9 1
     4    1   10 1
     5    2    4 1
     6    2   11 1
     7    2   12 1
     8    3    5 1
     9    3   13 1
    10    3   14 1
    11    4    5 1
    12    4    6 1
    13    4   15 1
    14    5    6 1
    15    5   16 1
    16    6    7 1
    17    6    8 1
    18    7   17 1
    19    7   18 1
    20    7   19 1
    21    8   20 1
