@<TRIPOS>MOLECULE
*****
   31    33     0     0     0
SMALL
NO_CHARGES

@<TRIPOS>ATOM
      1 C1         -0.5498   -0.6463    2.8653 C.ar      1 <0>         0.0000
      2 C2         -0.7742   -1.5766    1.8253 C.ar      1 <0>         0.0000
      3 C3         -1.5966    0.0885    3.4159 C.ar      1 <0>         0.0000
      4 C4         -7.3712    4.1997    6.5121 C.ar      1 <0>         0.0000
      5 C5         -5.0404    4.2861    7.1201 C.ar      1 <0>         0.0000
      6 C6         -7.0804    3.2318    5.5477 C.ar      1 <0>         0.0000
      7 C7         -4.7380    3.3238    6.1642 C.ar      1 <0>         0.0000
      8 C8         -2.0525   -1.7920    1.3130 C.ar      1 <0>         0.0000
      9 C9         -5.1137   -0.1484    2.3851 C.2       1 <0>         0.0000
     10 C10        -2.8947   -0.1106    2.9165 C.ar      1 <0>         0.0000
     11 C11        -6.3596    4.7425    7.3146 C.ar      1 <0>         0.0000
     12 C12        -5.7647    2.7840    5.3635 C.ar      1 <0>         0.0000
     13 C13        -4.1885    0.4540    3.2312 C.2       1 <0>         0.0000
     14 C14        -3.0991   -1.0500    1.8713 C.ar      1 <0>         0.0000
     15 C15        -6.6633    5.7779    8.3713 C.3       1 <0>         0.0000
     16 N1         -5.5795    1.8034    4.3606 N.2       1 <0>         0.0000
     17 N2         -4.3783    1.4173    4.2146 N.2       1 <0>         0.0000
     18 N3         -4.4592   -1.0448    1.5758 N.pl3     1 <0>         0.0000
     19 H1          0.4609   -0.5055    3.2391 H         1 <0>         0.0000
     20 H2          0.0645   -2.1342    1.4173 H         1 <0>         0.0000
     21 H3         -1.4235    0.8031    4.2150 H         1 <0>         0.0000
     22 H4         -8.3973    4.5369    6.6407 H         1 <0>         0.0000
     23 H5         -4.2416    4.6993    7.7334 H         1 <0>         0.0000
     24 H6         -7.8632    2.8099    4.9232 H         1 <0>         0.0000
     25 H7         -3.7201    2.9777    6.0191 H         1 <0>         0.0000
     26 H8         -2.2241   -2.5080    0.5128 H         1 <0>         0.0000
     27 H9         -6.1805    0.0095    2.3169 H         1 <0>         0.0000
     28 H10        -5.9985    6.6440    8.2820 H         1 <0>         0.0000
     29 H11        -7.6944    6.1346    8.2980 H         1 <0>         0.0000
     30 H12        -6.5237    5.3656    9.3779 H         1 <0>         0.0000
     31 H13        -4.9032   -1.6151    0.8694 H         1 <0>         0.0000
@<TRIPOS>BOND
     1    1    2 ar
     2    1    3 ar
     3    1   19 1
     4    2    8 ar
     5    2   20 1
     6    3   10 ar
     7    3   21 1
     8    4    6 ar
     9    4   11 ar
    10    4   22 1
    11    5    7 ar
    12    5   11 ar
    13    5   23 1
    14    6   12 ar
    15    6   24 1
    16    7   12 ar
    17    7   25 1
    18    8   14 ar
    19    8   26 1
    20    9   13 2
    21    9   18 1
    22    9   27 1
    23   10   13 1
    24   10   14 ar
    25   11   15 1
    26   12   16 1
    27   13   17 1
    28   14   18 1
    29   15   28 1
    30   15   29 1
    31   15   30 1
    32   16   17 2
    33   18   31 1
