@<TRIPOS>MOLECULE
*****
   33    34     0     0     0
SMALL
NO_CHARGES

@<TRIPOS>ATOM
      1 C1          2.9779    4.0383   -0.1440 C.2       1 <0>         0.0000
      2 C2          2.8978    3.4854    1.1075 C.2       1 <0>         0.0000
      3 C3          1.7486    2.2661   -0.6658 C.2       1 <0>         0.0000
      4 C4          0.3927    0.2497   -1.1174 C.2       1 <0>         0.0000
      5 C5          0.7001   -0.9840   -3.3300 C.3       1 <0>         0.0000
      6 C6         -1.1392   -1.6760   -1.7398 C.3       1 <0>         0.0000
      7 C7          1.5136   -2.1767   -2.8224 C.3       1 <0>         0.0000
      8 C8         -0.2723   -2.8735   -1.3359 C.3       1 <0>         0.0000
      9 C9         -0.3044   -0.4923   -2.2594 C.3       1 <0>         0.0000
     10 C10         3.6888    5.3014   -0.5381 C.3       1 <0>         0.0000
     11 C11         3.4730    3.9525    2.4131 C.3       1 <0>         0.0000
     12 N1          2.3199    3.3347   -1.1460 N.2       1 <0>         0.0000
     13 N2          0.5980   -3.2625   -2.4576 N.3       1 <0>         0.0000
     14 N3          1.0328    1.4118   -1.4987 N.am      1 <0>         0.0000
     15 O1          0.3939   -0.1165    0.0550 O.2       1 <0>         0.0000
     16 S1          1.9496    2.0038    1.0499 S.3       1 <0>         0.0000
     17 H1          1.3747   -0.1814   -3.6484 H         1 <0>         0.0000
     18 H2          0.1318   -1.3021   -4.2107 H         1 <0>         0.0000
     19 H3         -1.8164   -1.9882   -2.5427 H         1 <0>         0.0000
     20 H4         -1.7465   -1.3600   -0.8873 H         1 <0>         0.0000
     21 H5          2.1792   -2.5301   -3.6170 H         1 <0>         0.0000
     22 H6          2.1497   -1.8535   -1.9771 H         1 <0>         0.0000
     23 H7          0.2980   -2.6152   -0.4311 H         1 <0>         0.0000
     24 H8         -0.9208   -3.7223   -1.0941 H         1 <0>         0.0000
     25 H9         -0.9788    0.2355   -2.7310 H         1 <0>         0.0000
     26 H10         4.4532    5.0887   -1.2931 H         1 <0>         0.0000
     27 H11         2.9835    6.0128   -0.9810 H         1 <0>         0.0000
     28 H12         4.1728    5.7835    0.3134 H         1 <0>         0.0000
     29 H13         2.6900    4.1371    3.1573 H         1 <0>         0.0000
     30 H14         4.1641    3.2155    2.8378 H         1 <0>         0.0000
     31 H15         4.0262    4.8845    2.2773 H         1 <0>         0.0000
     32 H16         1.1389   -4.0822   -2.1912 H         1 <0>         0.0000
     33 H17         1.0105    1.7119   -2.4667 H         1 <0>         0.0000
@<TRIPOS>BOND
     1    1    2 2
     2    1   10 1
     3    1   12 1
     4    2   11 1
     5    2   16 1
     6    3   12 2
     7    3   14 1
     8    3   16 1
     9    4    9 1
    10    4   14 am
    11    4   15 2
    12    5    7 1
    13    5    9 1
    14    5   17 1
    15    5   18 1
    16    6    8 1
    17    6    9 1
    18    6   19 1
    19    6   20 1
    20    7   13 1
    21    7   21 1
    22    7   22 1
    23    8   13 1
    24    8   23 1
    25    8   24 1
    26    9   25 1
    27   10   26 1
    28   10   27 1
    29   10   28 1
    30   11   29 1
    31   11   30 1
    32   11   31 1
    33   13   32 1
    34   14   33 1
