@<TRIPOS>MOLECULE
*****
   28    30     0     0     0
SMALL
NO_CHARGES

@<TRIPOS>ATOM
      1 C1         -1.8098    2.0883   -4.2805 C.ar      1 <0>         0.0000
      2 C2          0.2326    1.0293    2.4453 C.ar      1 <0>         0.0000
      3 C3          0.1066    0.7853    1.0627 C.ar      1 <0>         0.0000
      4 C4         -1.8574    1.7245   -5.6210 C.ar      1 <0>         0.0000
      5 C5         -2.1964    1.6373    1.0532 C.ar      1 <0>         0.0000
      6 C6         -1.1992   -0.5347   -5.0029 C.ar      1 <0>         0.0000
      7 C7         -1.4639    1.1735   -3.2691 C.ar      1 <0>         0.0000
      8 C8         -0.8603    1.5786    3.0872 C.ar      1 <0>         0.0000
      9 C9         -2.0429    1.8729    2.4054 C.ar      1 <0>         0.0000
     10 C10        -1.0783    1.0882    0.4004 C.ar      1 <0>         0.0000
     11 C11        -1.1611   -0.1378   -3.6683 C.ar      1 <0>         0.0000
     12 C12        -1.5496    0.4053   -5.9702 C.ar      1 <0>         0.0000
     13 C13        -1.4506    1.6975   -1.8721 C.2       1 <0>         0.0000
     14 C14        -2.2504    2.6041    4.5089 C.3       1 <0>         0.0000
     15 O1         -1.6929    2.8549   -1.5940 O.2       1 <0>         0.0000
     16 O2         -1.0111    1.8824    4.4251 O.3       1 <0>         0.0000
     17 O3         -2.9749    2.3727    3.2884 O.3       1 <0>         0.0000
     18 O4         -1.1448    0.7387   -0.9575 O.3       1 <0>         0.0000
     19 F1         -0.8131   -1.0814   -2.7738 F         1 <0>         0.0000
     20 Cl1        -1.6024   -0.0798   -7.6489 Cl        1 <0>         0.0000
     21 H1         -2.0423    3.1041   -3.9781 H         1 <0>         0.0000
     22 H2          1.1462    0.7936    2.9809 H         1 <0>         0.0000
     23 H3          0.9282    0.3544    0.5003 H         1 <0>         0.0000
     24 H4         -2.1275    2.4447   -6.3856 H         1 <0>         0.0000
     25 H5         -3.1129    1.8720    0.5260 H         1 <0>         0.0000
     26 H6         -0.9569   -1.5593   -5.2629 H         1 <0>         0.0000
     27 H7         -2.8330    2.2268    5.3515 H         1 <0>         0.0000
     28 H8         -2.0405    3.6780    4.6067 H         1 <0>         0.0000
@<TRIPOS>BOND
     1    1    4 ar
     2    1    7 ar
     3    1   21 1
     4    2    3 ar
     5    2    8 ar
     6    2   22 1
     7    3   10 ar
     8    3   23 1
     9    4   12 ar
    10    4   24 1
    11    5    9 ar
    12    5   10 ar
    13    5   25 1
    14    6   11 ar
    15    6   12 ar
    16    6   26 1
    17    7   11 ar
    18    7   13 1
    19    8    9 ar
    20    8   16 1
    21    9   17 1
    22   10   18 1
    23   11   19 1
    24   12   20 1
    25   13   15 2
    26   13   18 1
    27   14   16 1
    28   14   17 1
    29   14   27 1
    30   14   28 1
