@<TRIPOS>MOLECULE
*****
   28    30     0     0     0
SMALL
NO_CHARGES

@<TRIPOS>ATOM
      1 C1         -1.5560   -0.1851   -2.4298 C.ar      1 <0>         0.0000
      2 C2          0.0368    1.2809    3.4631 C.ar      1 <0>         0.0000
      3 C3         -0.0778    0.9494    2.0975 C.ar      1 <0>         0.0000
      4 C4         -1.6668   -0.7680   -3.6882 C.ar      1 <0>         0.0000
      5 C5         -2.3366    1.9038    1.9881 C.ar      1 <0>         0.0000
      6 C6         -1.4634    1.4338   -4.7034 C.ar      1 <0>         0.0000
      7 C7         -1.3988    1.2037   -2.2653 C.ar      1 <0>         0.0000
      8 C8         -1.0394    1.9216    4.0457 C.ar      1 <0>         0.0000
      9 C9         -2.1960    2.2249    3.3240 C.ar      1 <0>         0.0000
     10 C10        -1.2376    1.2580    1.3959 C.ar      1 <0>         0.0000
     11 C11        -1.3563    1.9872   -3.4305 C.ar      1 <0>         0.0000
     12 C12        -1.6190    0.0534   -4.8189 C.ar      1 <0>         0.0000
     13 C13        -1.2863    1.8180   -0.9138 C.2       1 <0>         0.0000
     14 C14        -2.3977    3.1091    5.3674 C.3       1 <0>         0.0000
     15 O1         -1.1783    2.9980   -0.6713 O.2       1 <0>         0.0000
     16 O2         -1.1972    2.3206    5.3575 O.3       1 <0>         0.0000
     17 O3         -3.1164    2.8254    4.1542 O.3       1 <0>         0.0000
     18 O4         -1.3250    0.8435    0.0579 O.3       1 <0>         0.0000
     19 F1         -1.2071    3.3190   -3.3597 F         1 <0>         0.0000
     20 Cl1        -1.7565   -0.6580   -6.4098 Cl        1 <0>         0.0000
     21 H1         -1.5919   -0.8094   -1.5450 H         1 <0>         0.0000
     22 H2          0.9303    1.0430    4.0308 H         1 <0>         0.0000
     23 H3          0.7366    0.4523    1.5806 H         1 <0>         0.0000
     24 H4         -1.7886   -1.8403   -3.7959 H         1 <0>         0.0000
     25 H5         -3.2311    2.1408    1.4233 H         1 <0>         0.0000
     26 H6         -1.4244    2.0802   -5.5733 H         1 <0>         0.0000
     27 H7         -3.0108    2.8250    6.2247 H         1 <0>         0.0000
     28 H8         -2.1335    4.1752    5.3898 H         1 <0>         0.0000
@<TRIPOS>BOND
     1    1    4 ar
     2    1    7 ar
     3    1   21 1
     4    2    3 ar
     5    2    8 ar
     6    2   22 1
     7    3   10 ar
     8    3   23 1
     9    4   12 ar
    10    4   24 1
    11    5    9 ar
    12    5   10 ar
    13    5   25 1
    14    6   11 ar
    15    6   12 ar
    16    6   26 1
    17    7   11 ar
    18    7   13 1
    19    8    9 ar
    20    8   16 1
    21    9   17 1
    22   10   18 1
    23   11   19 1
    24   12   20 1
    25   13   15 2
    26   13   18 1
    27   14   16 1
    28   14   17 1
    29   14   27 1
    30   14   28 1
