@<TRIPOS>MOLECULE
*****
   25    26     0     0     0
SMALL
NO_CHARGES

@<TRIPOS>ATOM
      1 C1         -3.8857    0.7946   -2.9163 C.ar      1 <0>         0.0000
      2 C2         -5.2371    0.4908   -3.1343 C.ar      1 <0>         0.0000
      3 C3         -4.7907   -1.8424   -2.6130 C.ar      1 <0>         0.0000
      4 C4         -2.9755   -0.2019   -2.5464 C.ar      1 <0>         0.0000
      5 C5         -5.6643   -0.8186   -2.9787 C.ar      1 <0>         0.0000
      6 C6         -3.4602   -1.5148   -2.4033 C.ar      1 <0>         0.0000
      7 C7          1.7002    2.9610   -1.3384 C.3       1 <0>         0.0000
      8 C8          0.9873    2.3238   -0.1510 C.3       1 <0>         0.0000
      9 C9          0.3495    1.2455   -2.0745 C.3       1 <0>         0.0000
     10 C10        -1.1327    1.3051   -2.4225 C.3       1 <0>         0.0000
     11 O1          0.9205    2.4978   -2.4490 O.3       1 <0>         0.0000
     12 O2          0.5824    1.0581   -0.6848 O.3       1 <0>         0.0000
     13 O3         -1.6459   -0.0182   -2.3106 O.3       1 <0>         0.0000
     14 F1         -6.9714   -1.1258   -3.1867 F         1 <0>         0.0000
     15 F2         -2.5931   -2.4878   -2.0497 F         1 <0>         0.0000
     16 H1         -3.5535    1.8185   -3.0407 H         1 <0>         0.0000
     17 H2         -5.9450    1.2615   -3.4211 H         1 <0>         0.0000
     18 H3         -5.1334   -2.8646   -2.4941 H         1 <0>         0.0000
     19 H4          1.6806    4.0531   -1.3404 H         1 <0>         0.0000
     20 H5          2.7354    2.6066   -1.4240 H         1 <0>         0.0000
     21 H6          1.6300    2.1380    0.7119 H         1 <0>         0.0000
     22 H7          0.1158    2.9159    0.1602 H         1 <0>         0.0000
     23 H8          0.8318    0.4132   -2.6017 H         1 <0>         0.0000
     24 H9         -1.2434    1.6808   -3.4476 H         1 <0>         0.0000
     25 H10        -1.6441    1.9855   -1.7301 H         1 <0>         0.0000
@<TRIPOS>BOND
     1    1    2 ar
     2    1    4 ar
     3    1   16 1
     4    2    5 ar
     5    2   17 1
     6    3    5 ar
     7    3    6 ar
     8    3   18 1
     9    4    6 ar
    10    4   13 1
    11    5   14 1
    12    6   15 1
    13    7    8 1
    14    7   11 1
    15    7   19 1
    16    7   20 1
    17    8   12 1
    18    8   21 1
    19    8   22 1
    20    9   10 1
    21    9   12 1
    22    9   11 1
    23    9   23 1
    24   10   13 1
    25   10   24 1
    26   10   25 1
