@<TRIPOS>MOLECULE
*****
   38    40     0     0     0
SMALL
NO_CHARGES

@<TRIPOS>ATOM
      1 C1         -7.5492    5.3276    2.2790 C.ar      1 <0>         0.0000
      2 C2         -6.2589    4.8100    2.1707 C.ar      1 <0>         0.0000
      3 C3         -8.6450    4.6448    1.7417 C.ar      1 <0>         0.0000
      4 C4         -7.1393    2.9057    0.9375 C.ar      1 <0>         0.0000
      5 C5         -2.8798    1.8538    1.3776 C.2       1 <0>         0.0000
      6 C6         -6.0619    3.5940    1.5057 C.ar      1 <0>         0.0000
      7 C7         -8.4203    3.4393    1.0757 C.ar      1 <0>         0.0000
      8 C8         -2.6114    3.2310    1.1013 C.2       1 <0>         0.0000
      9 C9         -4.2592    1.8162    1.5612 C.2       1 <0>         0.0000
     10 C10        -1.8772    0.8020    1.4515 C.2       1 <0>         0.0000
     11 C11         0.1694   -1.0766    1.7897 C.3       1 <0>         0.0000
     12 C12        -1.6505   -2.5065    2.5874 C.3       1 <0>         0.0000
     13 C13         1.0158   -2.3446    1.6634 C.3       1 <0>         0.0000
     14 C14        -0.7368   -3.7080    2.3883 C.3       1 <0>         0.0000
     15 C15        -1.2860    3.8669    0.8124 C.3       1 <0>         0.0000
     16 N1         -3.7212    3.9631    1.1148 N.2       1 <0>         0.0000
     17 N2         -2.1941   -0.4257    1.6934 N.2       1 <0>         0.0000
     18 N3         -4.7396    3.0891    1.3878 N.pl3     1 <0>         0.0000
     19 N4         -1.2502   -1.4157    1.6919 N.pl3     1 <0>         0.0000
     20 O1          0.6306   -3.3506    2.5912 O.3       1 <0>         0.0000
     21 Cl1        -9.7779    2.5761    0.3718 Cl        1 <0>         0.0000
     22 Cl2        -5.2594    0.4977    2.0259 Cl        1 <0>         0.0000
     23 H1         -7.7089    6.2702    2.7950 H         1 <0>         0.0000
     24 H2         -5.4035    5.3328    2.5831 H         1 <0>         0.0000
     25 H3         -9.6514    5.0402    1.8321 H         1 <0>         0.0000
     26 H4         -6.9875    1.9860    0.3866 H         1 <0>         0.0000
     27 H5         -0.8512    1.1320    1.2748 H         1 <0>         0.0000
     28 H6          0.3821   -0.5576    2.7405 H         1 <0>         0.0000
     29 H7          0.4462   -0.4091    0.9674 H         1 <0>         0.0000
     30 H8         -2.6873   -2.7628    2.3567 H         1 <0>         0.0000
     31 H9         -1.6022   -2.1785    3.6382 H         1 <0>         0.0000
     32 H10         0.9341   -2.7329    0.6365 H         1 <0>         0.0000
     33 H11         2.0644   -2.1136    1.8677 H         1 <0>         0.0000
     34 H12        -0.9675   -4.4878    3.1180 H         1 <0>         0.0000
     35 H13        -0.8678   -4.1182    1.3752 H         1 <0>         0.0000
     36 H14        -0.8225    3.4343   -0.0812 H         1 <0>         0.0000
     37 H15        -1.4219    4.9376    0.6461 H         1 <0>         0.0000
     38 H16        -0.5881    3.7312    1.6461 H         1 <0>         0.0000
@<TRIPOS>BOND
     1    1    2 ar
     2    1    3 ar
     3    1   23 1
     4    2    6 ar
     5    2   24 1
     6    3    7 ar
     7    3   25 1
     8    4    6 ar
     9    4    7 ar
    10    4   26 1
    11    5    8 1
    12    5    9 2
    13    5   10 1
    14    6   18 1
    15    7   21 1
    16    8   15 1
    17    8   16 2
    18    9   18 1
    19    9   22 1
    20   10   17 2
    21   10   27 1
    22   11   13 1
    23   11   19 1
    24   11   28 1
    25   11   29 1
    26   12   14 1
    27   12   19 1
    28   12   30 1
    29   12   31 1
    30   13   20 1
    31   13   32 1
    32   13   33 1
    33   14   20 1
    34   14   34 1
    35   14   35 1
    36   15   36 1
    37   15   37 1
    38   15   38 1
    39   16   18 1
    40   17   19 1
