@<TRIPOS>MOLECULE
*****
   32    34     0     0     0
SMALL
NO_CHARGES

@<TRIPOS>ATOM
      1 C1          7.7159   -2.7101    1.8111 C.1       1 <0>         0.0000
      2 C2          2.3117    0.5415    0.2314 C.ar      1 <0>         0.0000
      3 C3          0.9756    0.6219    0.6330 C.ar      1 <0>         0.0000
      4 C4          3.1670   -0.3472    0.8774 C.ar      1 <0>         0.0000
      5 C5          0.5137   -0.1865    1.6742 C.ar      1 <0>         0.0000
      6 C6          6.1040   -5.5709    5.2970 C.2       1 <0>         0.0000
      7 C7          6.2485   -6.5393    6.2471 C.2       1 <0>         0.0000
      8 C8          8.3753   -6.0762    5.0838 C.2       1 <0>         0.0000
      9 C9          2.7051   -1.1640    1.9275 C.ar      1 <0>         0.0000
     10 C10         7.3374   -5.2819    4.6017 C.2       1 <0>         0.0000
     11 C11         1.3523   -1.0899    2.3423 C.ar      1 <0>         0.0000
     12 C12         3.6926   -2.0667    2.5405 C.2       1 <0>         0.0000
     13 C13         5.5591   -3.0043    2.8691 C.2       1 <0>         0.0000
     14 C14         7.6503   -4.3519    3.5373 C.2       1 <0>         0.0000
     15 C15         6.9565   -3.4189    2.8110 C.2       1 <0>         0.0000
     16 C16         0.7807   -1.9299    3.4580 C.3       1 <0>         0.0000
     17 N1          8.3686   -2.1628    1.0162 N.1       1 <0>         0.0000
     18 N2          5.0062   -2.1052    2.1012 N.2       1 <0>         0.0000
     19 N3          3.4467   -2.9041    3.5346 N.2       1 <0>         0.0000
     20 O1          4.6935   -3.5328    3.7580 O.3       1 <0>         0.0000
     21 S1          7.8802   -7.1355    6.3355 S.3       1 <0>         0.0000
     22 H1          2.6847    1.1643   -0.5768 H         1 <0>         0.0000
     23 H2          0.2942    1.3103    0.1395 H         1 <0>         0.0000
     24 H3          4.2070   -0.4239    0.5801 H         1 <0>         0.0000
     25 H4         -0.5272   -0.1175    1.9804 H         1 <0>         0.0000
     26 H5          5.1641   -5.0819    5.0972 H         1 <0>         0.0000
     27 H6          5.4900   -6.9422    6.9061 H         1 <0>         0.0000
     28 H7          9.4050   -6.0736    4.7476 H         1 <0>         0.0000
     29 H8          8.6951   -4.4109    3.2410 H         1 <0>         0.0000
     30 H9          0.8824   -2.9989    3.2486 H         1 <0>         0.0000
     31 H10         1.3048   -1.7543    4.4021 H         1 <0>         0.0000
     32 H11        -0.2789   -1.7015    3.5995 H         1 <0>         0.0000
@<TRIPOS>BOND
     1    1   15 1
     2    1   17 3
     3    2    3 ar
     4    2    4 ar
     5    2   22 1
     6    3    5 ar
     7    3   23 1
     8    4    9 ar
     9    4   24 1
    10    5   11 ar
    11    5   25 1
    12    6    7 2
    13    6   10 1
    14    6   26 1
    15    7   21 1
    16    7   27 1
    17    8   10 2
    18    8   21 1
    19    8   28 1
    20    9   11 ar
    21    9   12 1
    22   10   14 1
    23   11   16 1
    24   12   18 1
    25   12   19 2
    26   13   15 1
    27   13   18 2
    28   13   20 1
    29   14   15 2
    30   14   29 1
    31   16   30 1
    32   16   31 1
    33   16   32 1
    34   19   20 1
