@<TRIPOS>MOLECULE
*****
   35    37     0     0     0
SMALL
NO_CHARGES

@<TRIPOS>ATOM
      1 C1          2.7643    1.4769   -2.7454 C.ar      1 <0>         0.0000
      2 C2          3.8590    1.2553   -0.5877 C.ar      1 <0>         0.0000
      3 C3          5.0985    2.1156   -2.4877 C.ar      1 <0>         0.0000
      4 C4          2.7101    1.1199   -1.3892 C.ar      1 <0>         0.0000
      5 C5          3.9553    1.9697   -3.2742 C.ar      1 <0>         0.0000
      6 C6          5.0474    1.7533   -1.1361 C.ar      1 <0>         0.0000
      7 C7         -0.5640   -0.1425   -0.6674 C.2       1 <0>         0.0000
      8 C8         -0.0891   -0.0596    0.6213 C.2       1 <0>         0.0000
      9 C9          1.4502    0.6120   -0.8477 C.2       1 <0>         0.0000
     10 C10        -1.9426   -0.6359   -0.9827 C.3       1 <0>         0.0000
     11 C11        -0.8573   -0.4143    1.8516 C.3       1 <0>         0.0000
     12 C12        -2.3405   -0.5065    1.4388 C.3       1 <0>         0.0000
     13 C13         6.2238    1.5587    0.9418 C.3       1 <0>         0.0000
     14 C14         4.0468    2.3536   -4.7292 C.3       1 <0>         0.0000
     15 N1          0.3841    0.2770   -1.5684 N.2       1 <0>         0.0000
     16 N2          1.2040    0.4148    0.4984 N.pl3     1 <0>         0.0000
     17 N3         -2.4734   -1.3120    0.2169 N.3       1 <0>         0.0000
     18 O1          6.2109    1.9164   -0.4361 O.3       1 <0>         0.0000
     19 F1          2.8600    2.2628   -5.3694 F         1 <0>         0.0000
     20 F2          4.4889    3.6305   -4.8850 F         1 <0>         0.0000
     21 F3          4.9245    1.5616   -5.4026 F         1 <0>         0.0000
     22 H1          1.8766    1.3650   -3.3557 H         1 <0>         0.0000
     23 H2          3.8336    0.9514    0.4525 H         1 <0>         0.0000
     24 H3          6.0272    2.5006   -2.8964 H         1 <0>         0.0000
     25 H4         -2.5718    0.2119   -1.3097 H         1 <0>         0.0000
     26 H5         -1.9084   -1.3545   -1.8081 H         1 <0>         0.0000
     27 H6         -0.5263   -1.3786    2.2577 H         1 <0>         0.0000
     28 H7         -0.7399    0.3380    2.6419 H         1 <0>         0.0000
     29 H8         -2.9145   -0.9917    2.2339 H         1 <0>         0.0000
     30 H9         -2.7363    0.5181    1.3164 H         1 <0>         0.0000
     31 H10         7.2344    1.7684    1.2940 H         1 <0>         0.0000
     32 H11         6.0064    0.4923    1.0809 H         1 <0>         0.0000
     33 H12         5.5084    2.1593    1.5178 H         1 <0>         0.0000
     34 H13         1.8230    0.6440    1.2637 H         1 <0>         0.0000
     35 H14        -3.4533   -1.5372    0.0666 H         1 <0>         0.0000
@<TRIPOS>BOND
     1    1    4 ar
     2    1    5 ar
     3    1   22 1
     4    2    4 ar
     5    2    6 ar
     6    2   23 1
     7    3    5 ar
     8    3    6 ar
     9    3   24 1
    10    4    9 1
    11    5   14 1
    12    6   18 1
    13    7    8 2
    14    7   10 1
    15    7   15 1
    16    8   11 1
    17    8   16 1
    18    9   15 2
    19    9   16 1
    20   10   17 1
    21   10   25 1
    22   10   26 1
    23   11   12 1
    24   11   27 1
    25   11   28 1
    26   12   17 1
    27   12   29 1
    28   12   30 1
    29   13   18 1
    30   13   31 1
    31   13   32 1
    32   13   33 1
    33   14   19 1
    34   14   20 1
    35   14   21 1
    36   16   34 1
    37   17   35 1
