@<TRIPOS>MOLECULE
*****
   39    40     0     0     0
SMALL
NO_CHARGES

@<TRIPOS>ATOM
      1 C1          4.2213    0.8313   -1.7604 C.2       1 <0>         0.0000
      2 C2          3.0905    0.8598   -2.5369 C.2       1 <0>         0.0000
      3 C3          4.7691    2.6002   -3.0103 C.2       1 <0>         0.0000
      4 C4          0.6594    1.4362   -0.9086 C.3       1 <0>         0.0000
      5 C5          0.0499   -0.8411   -1.0440 C.3       1 <0>         0.0000
      6 C6         -0.2470    1.1768    0.3030 C.3       1 <0>         0.0000
      7 C7         -0.9898   -0.1175   -0.1415 C.3       1 <0>         0.0000
      8 C8          5.5703    3.7515   -3.5414 C.3       1 <0>         0.0000
      9 C9          0.5765    1.0388    1.5896 C.3       1 <0>         0.0000
     10 C10        -1.5259   -0.9936    0.9819 C.3       1 <0>         0.0000
     11 C11         5.6338   -1.1495   -1.0799 C.3       1 <0>         0.0000
     12 C12         4.5195   -0.1681   -0.6774 C.3       1 <0>         0.0000
     13 C13         1.8833   -0.0382   -2.4705 C.3       1 <0>         0.0000
     14 N1          5.1562    1.8153   -2.0435 N.2       1 <0>         0.0000
     15 N2          1.1681    0.0989   -1.2095 N.3       1 <0>         0.0000
     16 O1         -2.1571    0.2393   -0.9155 O.3       1 <0>         0.0000
     17 S1          3.1924    2.1875   -3.6659 S.3       1 <0>         0.0000
     18 H1          0.0859    1.8702   -1.7557 H         1 <0>         0.0000
     19 H2          1.4823    2.1244   -0.6975 H         1 <0>         0.0000
     20 H3          0.4090   -1.7787   -0.6035 H         1 <0>         0.0000
     21 H4         -0.4386   -1.0912   -2.0000 H         1 <0>         0.0000
     22 H5         -0.9875    1.9725    0.4313 H         1 <0>         0.0000
     23 H6          5.8070    3.6179   -4.6022 H         1 <0>         0.0000
     24 H7          5.0297    4.6982   -3.4374 H         1 <0>         0.0000
     25 H8          6.5036    3.8155   -2.9785 H         1 <0>         0.0000
     26 H9          1.3263    0.2475    1.4985 H         1 <0>         0.0000
     27 H10        -0.0586    0.8185    2.4524 H         1 <0>         0.0000
     28 H11         1.1051    1.9752    1.7978 H         1 <0>         0.0000
     29 H12        -2.2274   -0.4304    1.6047 H         1 <0>         0.0000
     30 H13        -0.7166   -1.3701    1.6117 H         1 <0>         0.0000
     31 H14        -2.0606   -1.8482    0.5561 H         1 <0>         0.0000
     32 H15         5.3392   -1.7377   -1.9559 H         1 <0>         0.0000
     33 H16         5.8547   -1.8439   -0.2620 H         1 <0>         0.0000
     34 H17         6.5515   -0.6093   -1.3302 H         1 <0>         0.0000
     35 H18         4.8269    0.3808    0.2205 H         1 <0>         0.0000
     36 H19         3.6021   -0.7049   -0.4233 H         1 <0>         0.0000
     37 H20         1.2236    0.1623   -3.3371 H         1 <0>         0.0000
     38 H21         2.2029   -1.0831   -2.5637 H         1 <0>         0.0000
     39 H22        -1.8799    0.8452   -1.6217 H         1 <0>         0.0000
@<TRIPOS>BOND
     1    1    2 2
     2    1   12 1
     3    1   14 1
     4    2   13 1
     5    2   17 1
     6    3    8 1
     7    3   14 2
     8    3   17 1
     9    4    6 1
    10    4   15 1
    11    4   18 1
    12    4   19 1
    13    5    7 1
    14    5   15 1
    15    5   20 1
    16    5   21 1
    17    6    7 1
    18    6    9 1
    19    6   22 1
    20    7   10 1
    21    7   16 1
    22    8   23 1
    23    8   24 1
    24    8   25 1
    25    9   26 1
    26    9   27 1
    27    9   28 1
    28   10   29 1
    29   10   30 1
    30   10   31 1
    31   11   12 1
    32   11   32 1
    33   11   33 1
    34   11   34 1
    35   12   35 1
    36   12   36 1
    37   13   15 1
    38   13   37 1
    39   13   38 1
    40   16   39 1
