@<TRIPOS>MOLECULE
*****
   18    19     0     0     0
SMALL
NO_CHARGES

@<TRIPOS>ATOM
      1 C1          1.4289    0.4992   -0.2312 C.1       1 <0>         0.0000
      2 C2          0.7295   -1.8385   -1.7913 C.ar      1 <0>         0.0000
      3 C3         -1.6648   -2.9720   -1.3823 C.ar      1 <0>         0.0000
      4 C4         -0.1688   -1.3202   -0.8478 C.ar      1 <0>         0.0000
      5 C5         -0.7485   -3.4720   -2.3205 C.ar      1 <0>         0.0000
      6 C6         -1.0148    0.8236    0.3669 C.3       1 <0>         0.0000
      7 C7         -0.4197   -0.0542    1.4151 C.3       1 <0>         0.0000
      8 C8          0.1400   -0.1169   -0.0155 C.3       1 <0>         0.0000
      9 N1          2.4659    1.0011   -0.3996 N.1       1 <0>         0.0000
     10 N2         -1.3656   -1.8993   -0.6538 N.ar      1 <0>         0.0000
     11 N3          0.4305   -2.9185   -2.5259 N.ar      1 <0>         0.0000
     12 Br1        -1.2183   -5.0202   -3.3502 Br        1 <0>         0.0000
     13 H1          1.7015   -1.3832   -1.9614 H         1 <0>         0.0000
     14 H2         -2.6322   -3.4417   -1.2268 H         1 <0>         0.0000
     15 H3         -1.9783    0.5411   -0.0432 H         1 <0>         0.0000
     16 H4         -0.7880    1.8842    0.3786 H         1 <0>         0.0000
     17 H5          0.2265    0.3876    2.1658 H         1 <0>         0.0000
     18 H6         -0.9791   -0.9328    1.7174 H         1 <0>         0.0000
@<TRIPOS>BOND
     1    1    8 1
     2    1    9 3
     3    2    4 ar
     4    2   11 ar
     5    2   13 1
     6    3    5 ar
     7    3   10 ar
     8    3   14 1
     9    4    8 1
    10    4   10 ar
    11    5   11 ar
    12    5   12 1
    13    6    7 1
    14    6    8 1
    15    6   15 1
    16    6   16 1
    17    7    8 1
    18    7   17 1
    19    7   18 1
