@<TRIPOS>MOLECULE
*****
   34    35     0     0     0
SMALL
NO_CHARGES

@<TRIPOS>ATOM
      1 C1         -1.0935    6.1247   -2.5281 C.ar      1 <0>         0.0000
      2 C2         -0.4900    6.9225   -0.3289 C.ar      1 <0>         0.0000
      3 C3         -0.8476    4.8138   -2.1201 C.ar      1 <0>         0.0000
      4 C4         -0.2442    5.6115    0.0791 C.ar      1 <0>         0.0000
      5 C5         -0.9146    7.1791   -1.6326 C.ar      1 <0>         0.0000
      6 C6         -0.4230    4.5571   -0.8165 C.ar      1 <0>         0.0000
      7 C7          1.2012    0.3573    1.6608 C.3       1 <0>         0.0000
      8 C8          0.5611   -0.4866   -0.6540 C.3       1 <0>         0.0000
      9 C9          0.1555   -0.4897    2.3746 C.3       1 <0>         0.0000
     10 C10        -0.5372   -1.4040   -0.1319 C.3       1 <0>         0.0000
     11 C11         0.7927    0.7343    0.2366 C.3       1 <0>         0.0000
     12 C12        -1.1767    8.5810   -2.0687 C.3       1 <0>         0.0000
     13 N1          1.8691    1.5409   -0.3524 N.2       1 <0>         0.0000
     14 N2          1.4663    2.6783   -0.6544 N.2       1 <0>         0.0000
     15 O1         -0.9132    2.0294   -1.1483 O.2       1 <0>         0.0000
     16 O2         -0.3152    2.8960    1.1402 O.2       1 <0>         0.0000
     17 S1         -0.1441   -2.0604    1.5147 S.3       1 <0>         0.0000
     18 S2         -0.1129    2.8923   -0.2975 S.o2      1 <0>         0.0000
     19 H1         -1.4237    6.3151   -3.5458 H         1 <0>         0.0000
     20 H2         -0.3476    7.7377    0.3756 H         1 <0>         0.0000
     21 H3         -0.9896    3.9997   -2.8260 H         1 <0>         0.0000
     22 H4          0.0868    5.4228    1.0970 H         1 <0>         0.0000
     23 H5          1.3874    1.2673    2.2344 H         1 <0>         0.0000
     24 H6          2.1383   -0.2015    1.6315 H         1 <0>         0.0000
     25 H7          1.4866   -1.0609   -0.7269 H         1 <0>         0.0000
     26 H8          0.3098   -0.1535   -1.6630 H         1 <0>         0.0000
     27 H9          0.4564   -0.7036    3.4052 H         1 <0>         0.0000
     28 H10        -0.7919    0.0565    2.4212 H         1 <0>         0.0000
     29 H11        -1.4769   -0.8475   -0.0577 H         1 <0>         0.0000
     30 H12        -0.7107   -2.2422   -0.8144 H         1 <0>         0.0000
     31 H13        -0.1062    1.3322    0.2670 H         1 <0>         0.0000
     32 H14        -2.2229    8.8506   -1.8796 H         1 <0>         0.0000
     33 H15        -0.5323    9.2915   -1.5348 H         1 <0>         0.0000
     34 H16        -0.9722    8.7098   -3.1397 H         1 <0>         0.0000
@<TRIPOS>BOND
     1    1    3 ar
     2    1    5 ar
     3    1   19 1
     4    2    4 ar
     5    2    5 ar
     6    2   20 1
     7    3    6 ar
     8    3   21 1
     9    4    6 ar
    10    4   22 1
    11    5   12 1
    12    6   18 1
    13    7    9 1
    14    7   11 1
    15    7   23 1
    16    7   24 1
    17    8   10 1
    18    8   11 1
    19    8   25 1
    20    8   26 1
    21    9   17 1
    22    9   27 1
    23    9   28 1
    24   10   17 1
    25   10   29 1
    26   10   30 1
    27   11   13 1
    28   11   31 1
    29   12   32 1
    30   12   33 1
    31   12   34 1
    32   13   14 2
    33   14   18 1
    34   15   18 2
    35   16   18 2
