@<TRIPOS>MOLECULE
*****
   39    41     0     0     0
SMALL
NO_CHARGES

@<TRIPOS>ATOM
      1 C1          0.3539    1.8046   -0.4017 C.1       1 <0>         0.0000
      2 C2          2.9280   -4.1599   -4.1186 C.ar      1 <0>         0.0000
      3 C3          3.6655   -3.3599   -3.2393 C.ar      1 <0>         0.0000
      4 C4          1.5928   -4.4568   -3.8270 C.ar      1 <0>         0.0000
      5 C5          3.0697   -2.8607   -2.0778 C.ar      1 <0>         0.0000
      6 C6          1.0014   -3.9541   -2.6641 C.ar      1 <0>         0.0000
      7 C7         -1.0034    1.7558    3.8814 C.2       1 <0>         0.0000
      8 C8         -1.3085   -0.2710    3.4089 C.2       1 <0>         0.0000
      9 C9          1.7316   -3.1519   -1.7762 C.ar      1 <0>         0.0000
     10 C10        -1.9654    1.0764   -1.0786 C.3       1 <0>         0.0000
     11 C11        -2.0429    1.5227    0.3522 C.3       1 <0>         0.0000
     12 C12        -0.7527    0.9043   -0.1675 C.3       1 <0>         0.0000
     13 C13         1.0761   -2.5612   -0.5469 C.3       1 <0>         0.0000
     14 C14         0.5202   -1.1524   -0.8407 C.3       1 <0>         0.0000
     15 C15         0.4633   -0.4458    1.6041 C.3       1 <0>         0.0000
     16 C16        -0.3242   -0.5079    0.2744 C.3       1 <0>         0.0000
     17 N1          1.2602    2.5042   -0.6146 N.1       1 <0>         0.0000
     18 N2         -1.7895    0.6820    4.1962 N.2       1 <0>         0.0000
     19 N3         -0.0778    1.5223    2.9584 N.2       1 <0>         0.0000
     20 N4         -0.2805    0.2053    2.6661 N.pl3     1 <0>         0.0000
     21 O1         -1.5344   -1.2468    0.5026 O.3       1 <0>         0.0000
     22 H1          3.3906   -4.5506   -5.0210 H         1 <0>         0.0000
     23 H2          4.7046   -3.1266   -3.4569 H         1 <0>         0.0000
     24 H3          1.0137   -5.0813   -4.5025 H         1 <0>         0.0000
     25 H4          3.6503   -2.2395   -1.3984 H         1 <0>         0.0000
     26 H5         -0.0378   -4.1923   -2.4432 H         1 <0>         0.0000
     27 H6         -1.1081    2.7278    4.3462 H         1 <0>         0.0000
     28 H7         -1.6660   -1.2887    3.3348 H         1 <0>         0.0000
     29 H8         -2.4844    0.1626   -1.3457 H         1 <0>         0.0000
     30 H9         -1.8901    1.8255   -1.8595 H         1 <0>         0.0000
     31 H10        -2.0151    2.5828    0.5763 H         1 <0>         0.0000
     32 H11        -2.6166    0.9131    1.0402 H         1 <0>         0.0000
     33 H12         0.2787   -3.2382   -0.2116 H         1 <0>         0.0000
     34 H13         1.8052   -2.5146    0.2681 H         1 <0>         0.0000
     35 H14        -0.1030   -1.1917   -1.7409 H         1 <0>         0.0000
     36 H15         1.3586   -0.4912   -1.0783 H         1 <0>         0.0000
     37 H16         1.3953    0.1076    1.4779 H         1 <0>         0.0000
     38 H17         0.7004   -1.4616    1.9277 H         1 <0>         0.0000
     39 H18        -1.4009   -2.1565    0.1973 H         1 <0>         0.0000
@<TRIPOS>BOND
     1    1   12 1
     2    1   17 3
     3    2    4 ar
     4    2    3 ar
     5    2   22 1
     6    3    5 ar
     7    3   23 1
     8    4    6 ar
     9    4   24 1
    10    5    9 ar
    11    5   25 1
    12    6    9 ar
    13    6   26 1
    14    7   18 1
    15    7   19 2
    16    7   27 1
    17    8   18 2
    18    8   20 1
    19    8   28 1
    20    9   13 1
    21   10   11 1
    22   10   12 1
    23   10   29 1
    24   10   30 1
    25   11   12 1
    26   11   31 1
    27   11   32 1
    28   12   16 1
    29   13   14 1
    30   13   33 1
    31   13   34 1
    32   14   16 1
    33   14   35 1
    34   14   36 1
    35   15   16 1
    36   15   20 1
    37   15   37 1
    38   15   38 1
    39   16   21 1
    40   19   20 1
    41   21   39 1
