@<TRIPOS>MOLECULE
*****
   65    70     0     0     0
SMALL
NO_CHARGES

@<TRIPOS>ATOM
      1 C1         -1.3337  -10.7220   -1.1368 C.ar      1 <0>         0.0000
      2 C2         -1.4684   -9.3431   -1.3315 C.ar      1 <0>         0.0000
      3 C3         -0.9506  -11.2133    0.1165 C.ar      1 <0>         0.0000
      4 C4         -1.2263   -8.4597   -0.2764 C.ar      1 <0>         0.0000
      5 C5         -0.6995  -10.3310    1.1694 C.ar      1 <0>         0.0000
      6 C6         -2.4369   -8.4663    5.3788 C.ar      1 <0>         0.0000
      7 C7         -3.2073   -9.2997    3.2386 C.ar      1 <0>         0.0000
      8 C8         -3.5063   -9.0932    6.0089 C.ar      1 <0>         0.0000
      9 C9         -4.2814   -9.9221    3.8712 C.ar      1 <0>         0.0000
     10 C10         2.2714   -5.7901    1.3369 C.2       1 <0>         0.0000
     11 C11         1.3676   -6.7754    1.0851 C.2       1 <0>         0.0000
     12 C12        -2.2653   -8.5614    3.9818 C.ar      1 <0>         0.0000
     13 C13        -0.8413   -8.9445    0.9863 C.ar      1 <0>         0.0000
     14 C14        -4.4425   -9.8285    5.2624 C.ar      1 <0>         0.0000
     15 C15        -1.1323   -7.8612    3.3701 C.2       1 <0>         0.0000
     16 C16        -0.5806   -8.0181    2.1000 C.2       1 <0>         0.0000
     17 C17         2.2021   -5.1124    2.6051 C.2       1 <0>         0.0000
     18 C18         0.4493   -6.3915    3.2912 C.2       1 <0>         0.0000
     19 C19         2.9248   -0.2602    3.1233 C.2       1 <0>         0.0000
     20 C20         2.9648    0.6259    1.8814 C.3       1 <0>         0.0000
     21 C21         3.6226   -0.2593    0.8090 C.3       1 <0>         0.0000
     22 C22        -6.6000  -12.1225    6.8984 C.3       1 <0>         0.0000
     23 C23        -5.5706  -11.0474    7.3506 C.3       1 <0>         0.0000
     24 C24        -6.3345  -11.7072    5.4227 C.3       1 <0>         0.0000
     25 C25         4.4608   -1.2721    1.6186 C.3       1 <0>         0.0000
     26 C26        -5.6420  -10.4163    5.9339 C.3       1 <0>         0.0000
     27 C27         4.0659   -2.2791    3.9498 C.3       1 <0>         0.0000
     28 C28         3.0375   -3.3949    4.0323 C.3       1 <0>         0.0000
     29 N1         -0.4903   -6.8706    4.0874 N.2       1 <0>         0.0000
     30 N2          1.3358   -5.4054    3.5457 N.2       1 <0>         0.0000
     31 N3          0.4349   -7.0675    2.0483 N.pl3     1 <0>         0.0000
     32 N4          3.7677   -1.3196    2.9038 N.am      1 <0>         0.0000
     33 N5         -6.7144   -9.2797    5.9725 N.4       1 <0>         0.0000
     34 O1          2.2843   -0.0770    4.1551 O.2       1 <0>         0.0000
     35 O2          3.1032   -4.1360    2.7841 O.3       1 <0>         0.0000
     36 H1         -1.5212  -11.4088   -1.9576 H         1 <0>         0.0000
     37 H2         -1.7677   -8.9563   -2.3018 H         1 <0>         0.0000
     38 H3         -0.8337  -12.2828    0.2693 H         1 <0>         0.0000
     39 H4         -1.3551   -7.3901   -0.4241 H         1 <0>         0.0000
     40 H5         -0.3881  -10.7092    2.1393 H         1 <0>         0.0000
     41 H6         -1.7151   -7.8900    5.9474 H         1 <0>         0.0000
     42 H7         -3.1084   -9.3797    2.1624 H         1 <0>         0.0000
     43 H8         -3.6012   -9.0230    7.0914 H         1 <0>         0.0000
     44 H9         -4.9906  -10.4912    3.2734 H         1 <0>         0.0000
     45 H10         3.0276   -5.5177    0.6111 H         1 <0>         0.0000
     46 H11         1.3341   -7.3530    0.1684 H         1 <0>         0.0000
     47 H12         1.9624    0.9742    1.6262 H         1 <0>         0.0000
     48 H13         3.5695    1.5083    2.1202 H         1 <0>         0.0000
     49 H14         2.8523   -0.7944    0.2454 H         1 <0>         0.0000
     50 H15         4.2326    0.2998    0.0963 H         1 <0>         0.0000
     51 H16        -7.6211  -11.9106    7.2305 H         1 <0>         0.0000
     52 H17        -6.3682  -13.1551    7.1598 H         1 <0>         0.0000
     53 H18        -5.8209  -10.4127    8.2066 H         1 <0>         0.0000
     54 H19        -4.5763  -11.4664    7.5132 H         1 <0>         0.0000
     55 H20        -5.5978  -12.3501    4.9385 H         1 <0>         0.0000
     56 H21        -7.1905  -11.5960    4.7495 H         1 <0>         0.0000
     57 H22         4.4864   -2.2628    1.1562 H         1 <0>         0.0000
     58 H23         5.4976   -0.9308    1.7516 H         1 <0>         0.0000
     59 H24         4.0659   -1.7597    4.9138 H         1 <0>         0.0000
     60 H25         5.0642   -2.6932    3.7798 H         1 <0>         0.0000
     61 H26         2.0319   -2.9905    4.1587 H         1 <0>         0.0000
     62 H27         3.2515   -4.0745    4.8626 H         1 <0>         0.0000
     63 H28        -7.5930   -9.5667    6.4234 H         1 <0>         0.0000
     64 H29        -6.9234   -8.9689    5.0158 H         1 <0>         0.0000
     65 H30        -6.3377   -8.4677    6.4772 H         1 <0>         0.0000
@<TRIPOS>BOND
     1    1    3 ar
     2    1    2 ar
     3    1   36 1
     4    2    4 ar
     5    2   37 1
     6    3    5 ar
     7    3   38 1
     8    4   13 ar
     9    4   39 1
    10    5   13 ar
    11    5   40 1
    12    6    8 ar
    13    6   12 ar
    14    6   41 1
    15    7    9 ar
    16    7   12 ar
    17    7   42 1
    18    8   14 ar
    19    8   43 1
    20    9   14 ar
    21    9   44 1
    22   10   11 2
    23   10   17 1
    24   10   45 1
    25   11   31 1
    26   11   46 1
    27   12   15 1
    28   13   16 1
    29   14   26 1
    30   15   16 2
    31   15   29 1
    32   16   31 1
    33   17   30 2
    34   17   35 1
    35   18   29 2
    36   18   30 1
    37   18   31 1
    38   19   20 1
    39   19   32 am
    40   19   34 2
    41   20   21 1
    42   20   47 1
    43   20   48 1
    44   21   25 1
    45   21   49 1
    46   21   50 1
    47   22   24 1
    48   22   23 1
    49   22   51 1
    50   22   52 1
    51   23   26 1
    52   23   53 1
    53   23   54 1
    54   24   26 1
    55   24   55 1
    56   24   56 1
    57   25   32 1
    58   25   57 1
    59   25   58 1
    60   26   33 1
    61   27   28 1
    62   27   32 1
    63   27   59 1
    64   27   60 1
    65   28   35 1
    66   28   61 1
    67   28   62 1
    68   33   63 1
    69   33   64 1
    70   33   65 1
