@<TRIPOS>MOLECULE
*****
   36    36     0     0     0
SMALL
NO_CHARGES

@<TRIPOS>ATOM
      1 C1         -0.7620    0.5372    5.5510 C.ar      1 <0>         0.0000
      2 C2          0.9103    2.1097    6.1841 C.ar      1 <0>         0.0000
      3 C3          0.3431    0.8440    6.3482 C.ar      1 <0>         0.0000
      4 C4         -0.6540    2.6133    4.5875 C.ar      1 <0>         0.0000
      5 C5         -4.0070    1.1035    1.1566 C.3       1 <0>         0.0000
      6 C6         -2.8786    6.9656    3.3978 C.3       1 <0>         0.0000
      7 C7         -3.0001    2.1194    0.5999 C.3       1 <0>         0.0000
      8 C8         -2.3452    6.2187    4.6273 C.3       1 <0>         0.0000
      9 C9         -1.8397    2.4371    1.5541 C.3       1 <0>         0.0000
     10 C10        -0.8548    5.8590    4.5482 C.3       1 <0>         0.0000
     11 C11        -2.2868    3.1458    2.8393 C.3       1 <0>         0.0000
     12 C12        -0.4968    4.8030    3.4917 C.3       1 <0>         0.0000
     13 N1         -1.2617    1.4015    4.6719 N.ar      1 <0>         0.0000
     14 N2          0.4247    2.9958    5.3186 N.ar      1 <0>         0.0000
     15 N3         -1.1635    3.5141    3.7033 N.pl3     1 <0>         0.0000
     16 Br1         1.0497   -0.4127    7.6029 Br        1 <0>         0.0000
     17 H1         -1.2518   -0.4328    5.6216 H         1 <0>         0.0000
     18 H2          1.7771    2.4152    6.7682 H         1 <0>         0.0000
     19 H3         -4.5316    1.4865    2.0378 H         1 <0>         0.0000
     20 H4         -4.7651    0.8517    0.4074 H         1 <0>         0.0000
     21 H5         -3.5034    0.1757    1.4509 H         1 <0>         0.0000
     22 H6         -2.7889    6.3718    2.4816 H         1 <0>         0.0000
     23 H7         -3.9371    7.2197    3.5180 H         1 <0>         0.0000
     24 H8         -2.3277    7.8997    3.2368 H         1 <0>         0.0000
     25 H9         -2.5830    1.7320   -0.3374 H         1 <0>         0.0000
     26 H10        -3.5228    3.0496    0.3376 H         1 <0>         0.0000
     27 H11        -2.5044    6.8425    5.5152 H         1 <0>         0.0000
     28 H12        -2.9300    5.3056    4.7938 H         1 <0>         0.0000
     29 H13        -1.3211    1.5122    1.8316 H         1 <0>         0.0000
     30 H14        -1.1073    3.0713    1.0386 H         1 <0>         0.0000
     31 H15        -0.2694    6.7627    4.3297 H         1 <0>         0.0000
     32 H16        -0.5109    5.4888    5.5187 H         1 <0>         0.0000
     33 H17        -2.9622    2.5090    3.4100 H         1 <0>         0.0000
     34 H18        -2.8288    4.0629    2.5902 H         1 <0>         0.0000
     35 H19         0.5848    4.6481    3.4952 H         1 <0>         0.0000
     36 H20        -0.7735    5.1462    2.4909 H         1 <0>         0.0000
@<TRIPOS>BOND
     1    1    3 ar
     2    1   13 ar
     3    1   17 1
     4    2    3 ar
     5    2   14 ar
     6    2   18 1
     7    3   16 1
     8    4   13 ar
     9    4   14 ar
    10    4   15 1
    11    5    7 1
    12    5   19 1
    13    5   20 1
    14    5   21 1
    15    6    8 1
    16    6   22 1
    17    6   23 1
    18    6   24 1
    19    7    9 1
    20    7   25 1
    21    7   26 1
    22    8   10 1
    23    8   27 1
    24    8   28 1
    25    9   11 1
    26    9   29 1
    27    9   30 1
    28   10   12 1
    29   10   31 1
    30   10   32 1
    31   11   15 1
    32   11   33 1
    33   11   34 1
    34   12   15 1
    35   12   35 1
    36   12   36 1
