@<TRIPOS>MOLECULE
*****
   57    58     0     0     0
SMALL
NO_CHARGES

@<TRIPOS>ATOM
      1 C1         -3.4497   -1.0852   -1.0767 C.2       1 <0>         0.0000
      2 C2         -2.4867   -0.0740   -0.7578 C.2       1 <0>         0.0000
      3 C3         -1.3835   -0.6059   -0.1224 C.2       1 <0>         0.0000
      4 C4         -4.7336   -0.9006   -1.7477 C.2       1 <0>         0.0000
      5 C5         -3.0714   -2.3532   -0.6703 C.2       1 <0>         0.0000
      6 C6         -5.0720   -3.3602   -1.5409 C.2       1 <0>         0.0000
      7 C7         -2.6748    1.3798   -1.0903 C.3       1 <0>         0.0000
      8 C8         -7.6080   -2.1325   -5.1747 C.3       1 <0>         0.0000
      9 C9         -5.5578   -3.4993   -4.6966 C.3       1 <0>         0.0000
     10 C10        -5.8592    0.1394   -5.0416 C.3       1 <0>         0.0000
     11 C11        -0.1649    0.1021    0.3238 C.3       1 <0>         0.0000
     12 C12        -2.6843   -5.5741   -1.4310 C.3       1 <0>         0.0000
     13 C13        -3.4459   -4.7896   -0.3580 C.3       1 <0>         0.0000
     14 C14        -6.6130   -2.0245   -2.8907 C.3       1 <0>         0.0000
     15 C15         3.0697    1.0520   -1.7090 C.3       1 <0>         0.0000
     16 C16         2.1315    0.9666   -0.4998 C.3       1 <0>         0.0000
     17 C17        -2.2023   -6.9184   -0.9082 C.3       1 <0>         0.0000
     18 C18        -6.2845   -2.1852   -4.3987 C.3       1 <0>         0.0000
     19 N1         -5.4147   -2.1005   -2.0325 N.am      1 <0>         0.0000
     20 N2         -3.8529   -3.4550   -0.8317 N.am      1 <0>         0.0000
     21 N3          4.2529    1.7968   -1.2950 N.3       1 <0>         0.0000
     22 N4          0.8518    0.2388   -0.8359 N.4       1 <0>         0.0000
     23 O1         -5.1947    0.1959   -2.0425 O.2       1 <0>         0.0000
     24 O2         -5.7617   -4.3523   -1.7038 O.2       1 <0>         0.0000
     25 O3         -5.3489   -1.1719   -4.8099 O.3       1 <0>         0.0000
     26 F1         -3.2942   -7.6685   -0.4524 F         1 <0>         0.0000
     27 S1         -1.5135   -2.3573    0.1087 S.3       1 <0>         0.0000
     28 H1         -3.5870    1.7610   -0.6255 H         1 <0>         0.0000
     29 H2         -1.8335    1.9956   -0.7567 H         1 <0>         0.0000
     30 H3         -2.8102    1.5140   -2.1671 H         1 <0>         0.0000
     31 H4         -8.1975   -1.2423   -4.9371 H         1 <0>         0.0000
     32 H5         -7.4126   -2.1414   -6.2507 H         1 <0>         0.0000
     33 H6         -8.2161   -3.0095   -4.9349 H         1 <0>         0.0000
     34 H7         -4.5647   -3.5012   -4.2375 H         1 <0>         0.0000
     35 H8         -5.4207   -3.5946   -5.7770 H         1 <0>         0.0000
     36 H9         -6.1162   -4.3604   -4.3251 H         1 <0>         0.0000
     37 H10        -4.9866    0.7738   -5.2135 H         1 <0>         0.0000
     38 H11        -6.4031    0.5345   -4.1774 H         1 <0>         0.0000
     39 H12        -6.4981    0.1725   -5.9318 H         1 <0>         0.0000
     40 H13        -0.3668    1.1238    0.6487 H         1 <0>         0.0000
     41 H14         0.3715   -0.4140    1.1224 H         1 <0>         0.0000
     42 H15        -1.8092   -5.0077   -1.7740 H         1 <0>         0.0000
     43 H16        -3.3410   -5.7278   -2.2921 H         1 <0>         0.0000
     44 H17        -2.8428   -4.6526    0.5453 H         1 <0>         0.0000
     45 H18        -4.3510   -5.3249   -0.0764 H         1 <0>         0.0000
     46 H19        -7.0730   -1.0546   -2.7057 H         1 <0>         0.0000
     47 H20        -7.2987   -2.8086   -2.5726 H         1 <0>         0.0000
     48 H21         3.2741    0.0395   -2.0971 H         1 <0>         0.0000
     49 H22         2.5709    1.6082   -2.5105 H         1 <0>         0.0000
     50 H23         1.8613    1.9661   -0.1558 H         1 <0>         0.0000
     51 H24         2.5942    0.4258    0.3291 H         1 <0>         0.0000
     52 H25        -1.5140   -6.8029   -0.0628 H         1 <0>         0.0000
     53 H26        -1.7098   -7.4949   -1.6965 H         1 <0>         0.0000
     54 H27         4.7092    2.2336   -2.0916 H         1 <0>         0.0000
     55 H28         4.9378    1.1928   -0.8465 H         1 <0>         0.0000
     56 H29         1.0587   -0.7036   -1.1872 H         1 <0>         0.0000
     57 H30         0.3691    0.7139   -1.6077 H         1 <0>         0.0000
@<TRIPOS>BOND
     1    1    2 1
     2    1    5 2
     3    1    4 1
     4    2    3 2
     5    2    7 1
     6    3   11 1
     7    3   27 1
     8    4   19 am
     9    4   23 2
    10    5   20 1
    11    5   27 1
    12    6   20 am
    13    6   19 am
    14    6   24 2
    15    7   28 1
    16    7   29 1
    17    7   30 1
    18    8   18 1
    19    8   31 1
    20    8   32 1
    21    8   33 1
    22    9   18 1
    23    9   34 1
    24    9   35 1
    25    9   36 1
    26   10   25 1
    27   10   37 1
    28   10   38 1
    29   10   39 1
    30   11   22 1
    31   11   40 1
    32   11   41 1
    33   12   13 1
    34   12   17 1
    35   12   42 1
    36   12   43 1
    37   13   20 1
    38   13   44 1
    39   13   45 1
    40   14   18 1
    41   14   19 1
    42   14   46 1
    43   14   47 1
    44   15   16 1
    45   15   21 1
    46   15   48 1
    47   15   49 1
    48   16   22 1
    49   16   50 1
    50   16   51 1
    51   17   26 1
    52   17   52 1
    53   17   53 1
    54   18   25 1
    55   21   54 1
    56   21   55 1
    57   22   56 1
    58   22   57 1
