@<TRIPOS>MOLECULE
*****
   54    57     0     0     0
SMALL
NO_CHARGES

@<TRIPOS>ATOM
      1 C1         -3.0853   -0.8574   -1.4343 C.2       1 <0>         0.0000
      2 C2         -2.1264    0.2151   -1.2529 C.2       1 <0>         0.0000
      3 C3         -1.0543   -0.1883   -0.5045 C.2       1 <0>         0.0000
      4 C4         -4.3529   -0.8142   -2.1446 C.2       1 <0>         0.0000
      5 C5         -2.7084   -2.0255   -0.8026 C.2       1 <0>         0.0000
      6 C6         -4.7118   -3.1956   -1.4501 C.2       1 <0>         0.0000
      7 C7          1.7916    0.3281    1.7572 C.2       1 <0>         0.0000
      8 C8         -6.4484   -3.1884   -3.9659 C.3       1 <0>         0.0000
      9 C9         -6.2341   -1.7560   -4.3975 C.3       1 <0>         0.0000
     10 C10         0.3992    0.6751    3.6089 C.3       1 <0>         0.0000
     11 C11        -0.3842    0.9912    2.3221 C.3       1 <0>         0.0000
     12 C12        -6.3032   -2.1007   -2.9306 C.3       1 <0>         0.0000
     13 C13        -7.4977   -1.6727   -2.1046 C.3       1 <0>         0.0000
     14 C14        -1.8808    1.5955   -3.3595 C.3       1 <0>         0.0000
     15 C15        -3.5843   -5.4810    3.4359 C.3       1 <0>         0.0000
     16 C16        -2.2781    1.5820   -1.8732 C.3       1 <0>         0.0000
     17 C17         0.1905    0.5532   -0.1120 C.3       1 <0>         0.0000
     18 C18        -3.0865   -4.3510   -0.0206 C.3       1 <0>         0.0000
     19 C19        -3.6198   -4.2741    1.4086 C.3       1 <0>         0.0000
     20 N1         -5.0383   -2.0601   -2.1992 N.am      1 <0>         0.0000
     21 N2         -3.4702   -3.1709   -0.8026 N.am      1 <0>         0.0000
     22 N3          1.7748    0.6696    3.1080 N.am      1 <0>         0.0000
     23 N4          0.4774    0.4010    1.3038 N.am      1 <0>         0.0000
     24 O1         -4.8323    0.1828   -2.6781 O.2       1 <0>         0.0000
     25 O2         -5.4452   -4.1732   -1.3637 O.2       1 <0>         0.0000
     26 O3          2.7734    0.0266    1.0910 O.2       1 <0>         0.0000
     27 O4         -3.0961   -5.3903    2.1058 O.3       1 <0>         0.0000
     28 S1         -1.1900   -1.8695    0.0287 S.3       1 <0>         0.0000
     29 H1         -7.4322   -3.6365   -4.0657 H         1 <0>         0.0000
     30 H2         -5.6260   -3.8854   -4.0839 H         1 <0>         0.0000
     31 H3         -5.2665   -1.4864   -4.8058 H         1 <0>         0.0000
     32 H4         -7.0655   -1.1883   -4.8040 H         1 <0>         0.0000
     33 H5          0.2524    1.4338    4.3814 H         1 <0>         0.0000
     34 H6          0.1048   -0.3049    4.0092 H         1 <0>         0.0000
     35 H7         -1.3814    0.5441    2.3118 H         1 <0>         0.0000
     36 H8         -0.4837    2.0771    2.1723 H         1 <0>         0.0000
     37 H9         -7.6254   -2.3377   -1.2447 H         1 <0>         0.0000
     38 H10        -8.4107   -1.7159   -2.7058 H         1 <0>         0.0000
     39 H11        -7.3695   -0.6444   -1.7533 H         1 <0>         0.0000
     40 H12        -0.8391    1.2837   -3.4914 H         1 <0>         0.0000
     41 H13        -1.9943    2.6014   -3.7769 H         1 <0>         0.0000
     42 H14        -2.5207    0.9197   -3.9328 H         1 <0>         0.0000
     43 H15        -3.1272   -6.3648    3.8858 H         1 <0>         0.0000
     44 H16        -4.6785   -5.5911    3.4532 H         1 <0>         0.0000
     45 H17        -3.3092   -4.5931    4.0250 H         1 <0>         0.0000
     46 H18        -3.3199    1.8971   -1.7834 H         1 <0>         0.0000
     47 H19        -1.6667    2.3043   -1.3235 H         1 <0>         0.0000
     48 H20         1.0683    0.1740   -0.6443 H         1 <0>         0.0000
     49 H21         0.0785    1.6127   -0.3794 H         1 <0>         0.0000
     50 H22        -1.9963   -4.4259   -0.0118 H         1 <0>         0.0000
     51 H23        -3.4892   -5.2323   -0.5176 H         1 <0>         0.0000
     52 H24        -4.7189   -4.2977    1.3920 H         1 <0>         0.0000
     53 H25        -3.3007   -3.3338    1.8863 H         1 <0>         0.0000
     54 H26         2.5222    0.2768    3.6669 H         1 <0>         0.0000
@<TRIPOS>BOND
     1    1    2 1
     2    1    5 2
     3    1    4 1
     4    2    3 2
     5    2   16 1
     6    3   17 1
     7    3   28 1
     8    4   20 am
     9    4   24 2
    10    5   21 1
    11    5   28 1
    12    6   21 am
    13    6   20 am
    14    6   25 2
    15    7   22 am
    16    7   23 am
    17    7   26 2
    18    8    9 1
    19    8   12 1
    20    8   29 1
    21    8   30 1
    22    9   12 1
    23    9   31 1
    24    9   32 1
    25   10   11 1
    26   10   22 1
    27   10   33 1
    28   10   34 1
    29   11   23 1
    30   11   35 1
    31   11   36 1
    32   12   13 1
    33   12   20 1
    34   13   37 1
    35   13   38 1
    36   13   39 1
    37   14   16 1
    38   14   40 1
    39   14   41 1
    40   14   42 1
    41   15   27 1
    42   15   43 1
    43   15   44 1
    44   15   45 1
    45   16   46 1
    46   16   47 1
    47   17   23 1
    48   17   48 1
    49   17   49 1
    50   18   19 1
    51   18   21 1
    52   18   50 1
    53   18   51 1
    54   19   27 1
    55   19   52 1
    56   19   53 1
    57   22   54 1
