@<TRIPOS>MOLECULE
*****
   12    11     0     0     0
SMALL
NO_CHARGES

@<TRIPOS>ATOM
      1 C1          2.8190   -1.6957    1.6998 C.2       1 <0>         0.0000
      2 C2          0.4362   -0.7531    0.7769 C.3       1 <0>         0.0000
      3 N1          4.0597   -0.8073    3.5706 N.3       1 <0>         0.0000
      4 N2          3.4022   -0.6385    2.3661 N.pl3     1 <0>         0.0000
      5 S1          2.7832   -3.3030    2.1726 S.2       1 <0>         0.0000
      6 S2          2.0959   -1.1584    0.1837 S.3       1 <0>         0.0000
      7 H1         -0.1766   -0.3904   -0.0520 H         1 <0>         0.0000
      8 H2          0.4954    0.0241    1.5429 H         1 <0>         0.0000
      9 H3         -0.0323   -1.6424    1.2054 H         1 <0>         0.0000
     10 H4          3.5759   -1.5538    4.0681 H         1 <0>         0.0000
     11 H5          3.9019    0.0406    4.1139 H         1 <0>         0.0000
     12 H6          3.3599    0.3006    1.9828 H         1 <0>         0.0000
@<TRIPOS>BOND
     1    1    4 1
     2    1    5 2
     3    1    6 1
     4    2    6 1
     5    2    7 1
     6    2    8 1
     7    2    9 1
     8    3    4 1
     9    3   10 1
    10    3   11 1
    11    4   12 1
