@<TRIPOS>MOLECULE
*****
   21    21     0     0     0
SMALL
NO_CHARGES

@<TRIPOS>ATOM
      1 C1         -1.6464    4.0245    0.5245 C.2       1 <0>         0.0000
      2 C2         -2.4608    3.7660   -0.5560 C.2       1 <0>         0.0000
      3 C3         -0.9162    2.8711    0.9325 C.2       1 <0>         0.0000
      4 C4         -1.2006    1.7746    0.1484 C.2       1 <0>         0.0000
      5 C5         -1.6870   -1.3728    1.7342 C.2       1 <0>         0.0000
      6 C6         -0.9603   -0.2592    1.5821 C.2       1 <0>         0.0000
      7 C7          0.0352    2.8642    2.0695 C.3       1 <0>         0.0000
      8 C8         -0.6443    0.3630    0.2440 C.3       1 <0>         0.0000
      9 N1          0.8040    0.3354   -0.0037 N.3       1 <0>         0.0000
     10 S1         -2.3433    2.1380   -1.0740 S.3       1 <0>         0.0000
     11 H1         -1.5812    4.9970    0.9960 H         1 <0>         0.0000
     12 H2         -3.1190    4.4551   -1.0660 H         1 <0>         0.0000
     13 H3         -1.8815   -1.7701    2.7244 H         1 <0>         0.0000
     14 H4         -2.0969   -1.9042    0.8825 H         1 <0>         0.0000
     15 H5         -0.5773    0.2290    2.4759 H         1 <0>         0.0000
     16 H6         -0.4781    2.6043    3.0070 H         1 <0>         0.0000
     17 H7          0.8495    2.1395    1.9149 H         1 <0>         0.0000
     18 H8          0.5153    3.8458    2.2048 H         1 <0>         0.0000
     19 H9         -1.1024   -0.2423   -0.5496 H         1 <0>         0.0000
     20 H10         1.1698    0.9791   -0.6649 H         1 <0>         0.0000
     21 H11         1.3140   -0.4448    0.3379 H         1 <0>         0.0000
@<TRIPOS>BOND
     1    1    2 2
     2    1    3 1
     3    1   11 1
     4    2   10 1
     5    2   12 1
     6    3    4 2
     7    3    7 1
     8    4    8 1
     9    4   10 1
    10    5    6 2
    11    5   13 1
    12    5   14 1
    13    6    8 1
    14    6   15 1
    15    7   16 1
    16    7   17 1
    17    7   18 1
    18    8    9 1
    19    8   19 1
    20    9   20 1
    21    9   21 1
