@<TRIPOS>MOLECULE
*****
   53    57     0     0     0
SMALL
NO_CHARGES

@<TRIPOS>ATOM
      1 C1         -5.5493    1.7448   -2.9695 C.ar      1 <0>         0.0000
      2 C2         -6.2680    2.2943   -1.9079 C.ar      1 <0>         0.0000
      3 C3         -5.1802    4.4206   -2.2720 C.ar      1 <0>         0.0000
      4 C4         -4.6459    2.5332   -3.6824 C.ar      1 <0>         0.0000
      5 C5         -6.0835    3.6322   -1.5592 C.ar      1 <0>         0.0000
      6 C6         -4.4614    3.8711   -3.3337 C.ar      1 <0>         0.0000
      7 C7         -3.0208   -1.5205   -2.6535 C.2       1 <0>         0.0000
      8 C8         -2.3175    0.4650   -2.0988 C.2       1 <0>         0.0000
      9 C9         -0.8961   -1.4820   -0.0816 C.2       1 <0>         0.0000
     10 C10        -3.4965   -2.9271   -2.4609 C.3       1 <0>         0.0000
     11 C11        -2.9876   -3.5481   -1.1657 C.3       1 <0>         0.0000
     12 C12        -3.1234   -2.5808    0.0149 C.3       1 <0>         0.0000
     13 C13        -4.6585    1.2199   -5.8997 C.3       1 <0>         0.0000
     14 C14        -4.0585    2.5596   -6.1917 C.3       1 <0>         0.0000
     15 C15         1.1820   -0.7523    2.8671 C.3       1 <0>         0.0000
     16 C16         1.0140   -1.4096    1.5053 C.3       1 <0>         0.0000
     17 C17        -1.1570   -0.8117    2.3557 C.3       1 <0>         0.0000
     18 C18        -2.3801   -1.2712   -0.2453 C.3       1 <0>         0.0000
     19 C19        -0.1817   -0.9501    3.5117 C.3       1 <0>         0.0000
     20 C20        -3.8796    1.9433   -4.8159 C.3       1 <0>         0.0000
     21 C21        -2.5309    1.4172   -4.4595 C.3       1 <0>         0.0000
     22 N1         -3.0707   -0.8773   -3.7823 N.2       1 <0>         0.0000
     23 N2         -2.5747   -0.7986   -1.6051 N.am      1 <0>         0.0000
     24 N3         -2.6239    0.3805   -3.4663 N.am      1 <0>         0.0000
     25 N4         -0.3959   -1.2440    1.1861 N.am      1 <0>         0.0000
     26 O1         -1.9051    1.4404   -1.4878 O.2       1 <0>         0.0000
     27 O2         -0.2089   -1.8481   -1.0365 O.2       1 <0>         0.0000
     28 F1         -6.7740    4.1604   -0.5401 F         1 <0>         0.0000
     29 F2         -3.5952    4.6374   -4.0116 F         1 <0>         0.0000
     30 F3         -0.2576   -2.2200    3.9950 F         1 <0>         0.0000
     31 H1         -5.6998    0.7011   -3.2332 H         1 <0>         0.0000
     32 H2         -6.9710    1.6810   -1.3520 H         1 <0>         0.0000
     33 H3         -5.0371    5.4623   -2.0006 H         1 <0>         0.0000
     34 H4         -4.5928   -2.8988   -2.4528 H         1 <0>         0.0000
     35 H5         -3.1947   -3.5324   -3.3221 H         1 <0>         0.0000
     36 H6         -3.5477   -4.4665   -0.9562 H         1 <0>         0.0000
     37 H7         -1.9391   -3.8428   -1.2889 H         1 <0>         0.0000
     38 H8         -4.1865   -2.3667    0.1813 H         1 <0>         0.0000
     39 H9         -2.7444   -3.0637    0.9233 H         1 <0>         0.0000
     40 H10        -5.7377    1.1608   -5.8160 H         1 <0>         0.0000
     41 H11        -4.2085    0.3527   -6.3692 H         1 <0>         0.0000
     42 H12        -3.2048    2.5944   -6.8587 H         1 <0>         0.0000
     43 H13        -4.7342    3.3999   -6.3028 H         1 <0>         0.0000
     44 H14         1.9872   -1.2158    3.4434 H         1 <0>         0.0000
     45 H15         1.3925    0.3161    2.7444 H         1 <0>         0.0000
     46 H16         1.6447   -0.9632    0.7308 H         1 <0>         0.0000
     47 H17         1.2199   -2.4848    1.5510 H         1 <0>         0.0000
     48 H18        -2.0511   -1.4282    2.4787 H         1 <0>         0.0000
     49 H19        -1.4429    0.2325    2.1928 H         1 <0>         0.0000
     50 H20        -2.6804   -0.4917    0.4573 H         1 <0>         0.0000
     51 H21        -0.3789   -0.2568    4.3330 H         1 <0>         0.0000
     52 H22        -2.0551    1.0075   -5.3627 H         1 <0>         0.0000
     53 H23        -1.9178    2.2401   -4.0632 H         1 <0>         0.0000
@<TRIPOS>BOND
     1    1    2 ar
     2    1    4 ar
     3    1   31 1
     4    2    5 ar
     5    2   32 1
     6    3    5 ar
     7    3    6 ar
     8    3   33 1
     9    4    6 ar
    10    4   20 1
    11    5   28 1
    12    6   29 1
    13    7   10 1
    14    7   22 2
    15    7   23 1
    16    8   23 am
    17    8   24 am
    18    8   26 2
    19    9   18 1
    20    9   25 am
    21    9   27 2
    22   10   11 1
    23   10   34 1
    24   10   35 1
    25   11   12 1
    26   11   36 1
    27   11   37 1
    28   12   18 1
    29   12   38 1
    30   12   39 1
    31   13   14 1
    32   13   20 1
    33   13   40 1
    34   13   41 1
    35   14   20 1
    36   14   42 1
    37   14   43 1
    38   15   16 1
    39   15   19 1
    40   15   44 1
    41   15   45 1
    42   16   25 1
    43   16   46 1
    44   16   47 1
    45   17   19 1
    46   17   25 1
    47   17   48 1
    48   17   49 1
    49   18   23 1
    50   18   50 1
    51   19   30 1
    52   19   51 1
    53   20   21 1
    54   21   24 1
    55   21   52 1
    56   21   53 1
    57   22   24 1
