@<TRIPOS>MOLECULE
*****
   19    19     0     0     0
SMALL
NO_CHARGES

@<TRIPOS>ATOM
      1 C1          4.6080    1.3320    0.7750 C.2       1 <0>         0.0000
      2 C2          5.4590    0.6380   -0.0170 C.2       1 <0>         0.0000
      3 C3          3.4550   -0.2350   -0.0990 C.2       1 <0>         0.0000
      4 C4          2.3790   -1.1480   -0.4910 C.2       1 <0>         0.0000
      5 C5          5.2800   -1.3400   -1.4940 C.3       1 <0>         0.0000
      6 C6         -0.0610   -1.6700   -0.2930 C.3       1 <0>         0.0000
      7 N1          3.3680    0.7990    0.7300 N.2       1 <0>         0.0000
      8 N2          4.7400   -0.3490   -0.5680 N.pl3     1 <0>         0.0000
      9 N3          1.1550   -0.9410    0.0800 N.am      1 <0>         0.0000
     10 O1          2.4880   -2.0780   -1.2920 O.2       1 <0>         0.0000
     11 H1          4.8630    2.1810    1.3590 H         1 <0>         0.0000
     12 H2          6.4900    0.7790   -0.2140 H         1 <0>         0.0000
     13 H3          4.7380   -1.2370   -2.4240 H         1 <0>         0.0000
     14 H4          5.1160   -2.3140   -1.0520 H         1 <0>         0.0000
     15 H5          6.3330   -1.1370   -1.6240 H         1 <0>         0.0000
     16 H6         -0.7830   -1.5820    0.5200 H         1 <0>         0.0000
     17 H7          0.1900   -2.7200   -0.4580 H         1 <0>         0.0000
     18 H8         -0.4600   -1.2300   -1.2090 H         1 <0>         0.0000
     19 H9          1.0980   -0.1090    0.6890 H         1 <0>         0.0000
@<TRIPOS>BOND
     1    1    2 2
     2    1    7 1
     3    1   11 1
     4    2    8 1
     5    2   12 1
     6    3    4 1
     7    3    7 2
     8    3    8 1
     9    4    9 am
    10    4   10 2
    11    5    8 1
    12    5   13 1
    13    5   14 1
    14    5   15 1
    15    6    9 1
    16    6   16 1
    17    6   17 1
    18    6   18 1
    19    9   19 1
