@<TRIPOS>MOLECULE
*****
   21    21     0     0     0
SMALL
NO_CHARGES

@<TRIPOS>ATOM
      1 C1          1.8851   -1.0363   -0.1124 C.ar      1 <0>         0.0000
      2 C2          0.8066   -0.4630    0.5610 C.ar      1 <0>         0.0000
      3 C3          2.9210   -1.6309    0.6081 C.ar      1 <0>         0.0000
      4 C4          1.7997   -1.0786    2.6757 C.ar      1 <0>         0.0000
      5 C5          0.7638   -0.4841    1.9551 C.ar      1 <0>         0.0000
      6 C6          2.8783   -1.6520    2.0022 C.ar      1 <0>         0.0000
      7 C7          5.9780   -3.3929    2.9580 C.3       1 <0>         0.0000
      8 C8          4.9808   -2.8116    1.9893 C.3       1 <0>         0.0000
      9 N1         -0.3262    0.0966    2.6360 N.pl3     1 <0>         0.0000
     10 O1          3.8891   -2.2323    2.7051 O.3       1 <0>         0.0000
     11 F1          6.4723   -2.4095    3.7500 F         1 <0>         0.0000
     12 F2          7.0275   -3.9088    2.2725 F         1 <0>         0.0000
     13 F3          5.5869   -1.8709    1.2265 F         1 <0>         0.0000
     14 F4          4.5214   -3.7966    1.1798 F         1 <0>         0.0000
     15 H1          1.9186   -1.0197   -1.1979 H         1 <0>         0.0000
     16 H2          0.0054   -0.0012   -0.0105 H         1 <0>         0.0000
     17 H3          3.7582   -2.0764    0.0779 H         1 <0>         0.0000
     18 H4          1.7710   -1.0974    3.7627 H         1 <0>         0.0000
     19 H5          5.5469   -4.1731    3.5912 H         1 <0>         0.0000
     20 H6         -0.3683    0.0334    3.6331 H         1 <0>         0.0000
     21 H7         -1.0843    0.4782    2.1071 H         1 <0>         0.0000
@<TRIPOS>BOND
     1    1    2 ar
     2    1    3 ar
     3    1   15 1
     4    2    5 ar
     5    2   16 1
     6    3    6 ar
     7    3   17 1
     8    4    5 ar
     9    4    6 ar
    10    4   18 1
    11    5    9 1
    12    6   10 1
    13    7    8 1
    14    7   11 1
    15    7   12 1
    16    7   19 1
    17    8   10 1
    18    8   13 1
    19    8   14 1
    20    9   20 1
    21    9   21 1
