@<TRIPOS>MOLECULE
*****
   23    24     0     0     0
SMALL
NO_CHARGES

@<TRIPOS>ATOM
      1 C1          1.8845   -1.0378   -0.1125 C.ar      1 <0>         0.0000
      2 C2          1.3560   -2.1439    0.5531 C.ar      1 <0>         0.0000
      3 C3          2.3705    0.0479    0.6160 C.ar      1 <0>         0.0000
      4 C4          2.6153    0.9505    8.0497 C.ar      1 <0>         0.0000
      5 C5          2.0780   -0.1769    8.6609 C.ar      1 <0>         0.0000
      6 C6          1.3136   -2.1643    1.9472 C.ar      1 <0>         0.0000
      7 C7          2.3282    0.0274    2.0101 C.ar      1 <0>         0.0000
      8 C8          2.6792    1.0185    6.6624 C.ar      1 <0>         0.0000
      9 C9          1.6219   -1.2009    7.8466 C.ar      1 <0>         0.0000
     10 C10         1.7997   -1.0786    2.6757 C.ar      1 <0>         0.0000
     11 C11         2.1964   -0.0591    5.9375 C.ar      1 <0>         0.0000
     12 N1          1.6674   -1.1709    6.4958 N.ar      1 <0>         0.0000
     13 N2          1.7574   -1.0997    4.0733 N.2       1 <0>         0.0000
     14 N3          2.2393   -0.0376    4.5329 N.2       1 <0>         0.0000
     15 H1          1.9176   -1.0218   -1.1980 H         1 <0>         0.0000
     16 H2          0.9776   -2.9891   -0.0143 H         1 <0>         0.0000
     17 H3          2.7818    0.9092    0.0976 H         1 <0>         0.0000
     18 H4          2.9835    1.7745    8.6535 H         1 <0>         0.0000
     19 H5          2.0181   -0.2516    9.7406 H         1 <0>         0.0000
     20 H6          0.9001   -3.0307    2.4568 H         1 <0>         0.0000
     21 H7          2.7095    0.8776    2.5696 H         1 <0>         0.0000
     22 H8          3.0960    1.8921    6.1728 H         1 <0>         0.0000
     23 H9          1.1939   -2.1016    8.2741 H         1 <0>         0.0000
@<TRIPOS>BOND
     1    1    3 ar
     2    1    2 ar
     3    1   15 1
     4    2    6 ar
     5    2   16 1
     6    3    7 ar
     7    3   17 1
     8    4    5 ar
     9    4    8 ar
    10    4   18 1
    11    5    9 ar
    12    5   19 1
    13    6   10 ar
    14    6   20 1
    15    7   10 ar
    16    7   21 1
    17    8   11 ar
    18    8   22 1
    19    9   12 ar
    20    9   23 1
    21   10   13 1
    22   11   12 ar
    23   11   14 1
    24   13   14 2
