@<TRIPOS>MOLECULE
*****
   32    32     0     0     0
SMALL
NO_CHARGES

@<TRIPOS>ATOM
      1 C1          2.8599   -2.0249   -3.4848 C.ar      1 <0>         0.0000
      2 C2          1.5563   -0.3104   -4.5630 C.ar      1 <0>         0.0000
      3 C3          3.6431   -2.1706   -4.6330 C.ar      1 <0>         0.0000
      4 C4          2.3234   -0.4422   -5.7132 C.ar      1 <0>         0.0000
      5 C5          1.8083   -1.1039   -3.4307 C.ar      1 <0>         0.0000
      6 C6          3.3727   -1.3797   -5.7628 C.ar      1 <0>         0.0000
      7 C7         -1.1307   -2.0904   -3.3027 C.3       1 <0>         0.0000
      8 C8          0.9344   -1.0030   -2.2002 C.3       1 <0>         0.0000
      9 C9          5.5981   -2.3579   -8.5009 C.3       1 <0>         0.0000
     10 C10         5.1114   -2.3991   -7.0689 C.3       1 <0>         0.0000
     11 C11        -0.1097   -2.1291   -2.1751 C.3       1 <0>         0.0000
     12 N1         -0.8735   -2.0398   -0.8336 N.4       1 <0>         0.0000
     13 O1          4.5932   -2.9456   -9.3226 O.3       1 <0>         0.0000
     14 O2          4.0598   -1.4324   -6.9263 O.3       1 <0>         0.0000
     15 H1          3.0939   -2.6367   -2.6147 H         1 <0>         0.0000
     16 H2          0.7550    0.4256   -4.5451 H         1 <0>         0.0000
     17 H3          4.4569   -2.8859   -4.6324 H         1 <0>         0.0000
     18 H4          2.1350    0.1703   -6.5895 H         1 <0>         0.0000
     19 H5         -1.6657   -1.1344   -3.3265 H         1 <0>         0.0000
     20 H6         -0.6037   -2.1981   -4.2522 H         1 <0>         0.0000
     21 H7         -1.8568   -2.9065   -3.2286 H         1 <0>         0.0000
     22 H8          0.4203   -0.0338   -2.1821 H         1 <0>         0.0000
     23 H9          1.5523   -1.0628   -1.2941 H         1 <0>         0.0000
     24 H10         6.5408   -2.9221   -8.5550 H         1 <0>         0.0000
     25 H11         5.8001   -1.3165   -8.7858 H         1 <0>         0.0000
     26 H12         5.9331   -2.1552   -6.3836 H         1 <0>         0.0000
     27 H13         4.7325   -3.4026   -6.8427 H         1 <0>         0.0000
     28 H14         0.3891   -3.1011   -2.1391 H         1 <0>         0.0000
     29 H15        -1.5574   -2.7997   -0.7315 H         1 <0>         0.0000
     30 H16        -1.3878   -1.1523   -0.7711 H         1 <0>         0.0000
     31 H17        -0.2319   -2.0802   -0.0321 H         1 <0>         0.0000
     32 H18         4.8501   -2.8419  -10.2516 H         1 <0>         0.0000
@<TRIPOS>BOND
     1    1    3 ar
     2    1    5 ar
     3    1   15 1
     4    2    4 ar
     5    2    5 ar
     6    2   16 1
     7    3    6 ar
     8    3   17 1
     9    4    6 ar
    10    4   18 1
    11    5    8 1
    12    6   14 1
    13    7   11 1
    14    7   19 1
    15    7   20 1
    16    7   21 1
    17    8   11 1
    18    8   22 1
    19    8   23 1
    20    9   10 1
    21    9   13 1
    22    9   24 1
    23    9   25 1
    24   10   14 1
    25   10   26 1
    26   10   27 1
    27   11   12 1
    28   11   28 1
    29   12   29 1
    30   12   30 1
    31   12   31 1
    32   13   32 1
