@<TRIPOS>MOLECULE
*****
   34    36     0     0     0
SMALL
NO_CHARGES

@<TRIPOS>ATOM
      1 C1         -0.7322   -2.2133   -0.0546 C.ar      1 <0>         0.0000
      2 C2          0.1320   -1.1352   -0.3703 C.ar      1 <0>         0.0000
      3 C3          3.0843   -5.2291    0.1711 C.ar      1 <0>         0.0000
      4 C4         -0.2064   -3.4690    0.1516 C.ar      1 <0>         0.0000
      5 C5          1.4934   -1.3327   -0.4730 C.ar      1 <0>         0.0000
      6 C6          1.7259   -5.0034    0.2677 C.ar      1 <0>         0.0000
      7 C7          3.9589   -4.1709   -0.1429 C.ar      1 <0>         0.0000
      8 C8          1.1937   -3.7054    0.0529 C.ar      1 <0>         0.0000
      9 C9          2.0758   -2.6172   -0.2675 C.ar      1 <0>         0.0000
     10 C10         3.4877   -2.8798   -0.3626 C.ar      1 <0>         0.0000
     11 C11        10.4927   -1.1190   -1.4427 C.ar      1 <0>         0.0000
     12 C12         9.7649   -2.2932   -1.1180 C.ar      1 <0>         0.0000
     13 C13         7.8675   -1.1100   -1.1833 C.ar      1 <0>         0.0000
     14 C14         4.4369   -1.8109   -0.6877 C.2       1 <0>         0.0000
     15 C15        11.9862   -1.1120   -1.5931 C.3       1 <0>         0.0000
     16 N1          9.8164    0.0142   -1.6184 N.ar      1 <0>         0.0000
     17 N2          8.4540   -2.3051   -0.9850 N.ar      1 <0>         0.0000
     18 N3          8.4895    0.0418   -1.4922 N.ar      1 <0>         0.0000
     19 N4          5.7037   -2.0427   -0.7660 N.2       1 <0>         0.0000
     20 N5          6.5021   -0.9965   -1.0725 N.pl3     1 <0>         0.0000
     21 O1         10.4395   -3.4471   -0.9372 O.3       1 <0>         0.0000
     22 H1         -1.8029   -2.0448    0.0233 H         1 <0>         0.0000
     23 H2         -0.2823   -0.1435   -0.5327 H         1 <0>         0.0000
     24 H3          3.4868   -6.2250    0.3363 H         1 <0>         0.0000
     25 H4         -0.8579   -4.3052    0.3948 H         1 <0>         0.0000
     26 H5          2.1173   -0.4797   -0.7155 H         1 <0>         0.0000
     27 H6          1.0458   -5.8169    0.5095 H         1 <0>         0.0000
     28 H7          5.0265   -4.3504   -0.2191 H         1 <0>         0.0000
     29 H8          4.0521   -0.8021   -0.8660 H         1 <0>         0.0000
     30 H9         12.3065   -1.8032   -2.3800 H         1 <0>         0.0000
     31 H10        12.3158   -0.1026   -1.8460 H         1 <0>         0.0000
     32 H11        12.4774   -1.4300   -0.6672 H         1 <0>         0.0000
     33 H12         6.1264   -0.0613   -1.2331 H         1 <0>         0.0000
     34 H13         9.7725   -4.1283   -0.7244 H         1 <0>         0.0000
@<TRIPOS>BOND
     1    1    2 ar
     2    1    4 ar
     3    1   22 1
     4    2    5 ar
     5    2   23 1
     6    3    6 ar
     7    3    7 ar
     8    3   24 1
     9    4    8 ar
    10    4   25 1
    11    5    9 ar
    12    5   26 1
    13    6    8 ar
    14    6   27 1
    15    7   10 ar
    16    7   28 1
    17    8    9 ar
    18    9   10 ar
    19   10   14 1
    20   11   12 ar
    21   11   15 1
    22   11   16 ar
    23   12   17 ar
    24   12   21 1
    25   13   17 ar
    26   13   18 ar
    27   13   20 1
    28   14   19 2
    29   14   29 1
    30   15   30 1
    31   15   31 1
    32   15   32 1
    33   16   18 ar
    34   19   20 1
    35   20   33 1
    36   21   34 1
