@<TRIPOS>MOLECULE
*****
   27    29     0     0     0
SMALL
NO_CHARGES

@<TRIPOS>ATOM
      1 C1          8.4780   -5.2009    0.2228 C.ar      1 <0>         0.0000
      2 C2          9.0033   -5.7361   -0.9569 C.ar      1 <0>         0.0000
      3 C3          7.3087   -4.4489    0.1770 C.ar      1 <0>         0.0000
      4 C4          1.7435   -1.0766    0.2744 C.ar      1 <0>         0.0000
      5 C5          0.7935   -0.3802    1.0102 C.ar      1 <0>         0.0000
      6 C6          8.3525   -5.5118   -2.1702 C.ar      1 <0>         0.0000
      7 C7          2.2332   -0.5376    2.9609 C.ar      1 <0>         0.0000
      8 C8          2.9522   -1.5246    0.8468 C.ar      1 <0>         0.0000
      9 C9          6.6290   -4.2068   -1.0359 C.ar      1 <0>         0.0000
     10 C10         1.0496   -0.1164    2.3582 C.ar      1 <0>         0.0000
     11 C11         3.1808   -1.2385    2.2098 C.ar      1 <0>         0.0000
     12 C12         7.1774   -4.7551   -2.2132 C.ar      1 <0>         0.0000
     13 C13         5.4013   -3.3955   -0.9446 C.2       1 <0>         0.0000
     14 C14         3.8871   -2.2565   -0.0091 C.2       1 <0>         0.0000
     15 N1          4.9756   -2.9101    0.2833 N.2       1 <0>         0.0000
     16 N2          4.6134   -3.0591   -1.9481 N.2       1 <0>         0.0000
     17 O1          3.6022   -2.2991   -1.3347 O.3       1 <0>         0.0000
     18 Cl1        -0.1281    0.7572    3.3096 Cl        1 <0>         0.0000
     19 Cl2         4.6380   -1.7091    3.0449 Cl        1 <0>         0.0000
     20 Br1         6.3951   -4.5257   -3.9442 Br        1 <0>         0.0000
     21 H1          8.9763   -5.3683    1.1734 H         1 <0>         0.0000
     22 H2          9.9156   -6.3262   -0.9393 H         1 <0>         0.0000
     23 H3          6.8887   -4.0269    1.0829 H         1 <0>         0.0000
     24 H4          1.5553   -1.2893   -0.7720 H         1 <0>         0.0000
     25 H5         -0.1309   -0.0478    0.5502 H         1 <0>         0.0000
     26 H6          8.7526   -5.9224   -3.0912 H         1 <0>         0.0000
     27 H7          2.4255   -0.3241    4.0062 H         1 <0>         0.0000
@<TRIPOS>BOND
     1    1    2 ar
     2    1    3 ar
     3    1   21 1
     4    2    6 ar
     5    2   22 1
     6    3    9 ar
     7    3   23 1
     8    4    5 ar
     9    4    8 ar
    10    4   24 1
    11    5   10 ar
    12    5   25 1
    13    6   12 ar
    14    6   26 1
    15    7   10 ar
    16    7   11 ar
    17    7   27 1
    18    8   11 ar
    19    8   14 1
    20    9   12 ar
    21    9   13 1
    22   10   18 1
    23   11   19 1
    24   12   20 1
    25   13   15 1
    26   13   16 2
    27   14   15 2
    28   14   17 1
    29   16   17 1
