@<TRIPOS>MOLECULE
*****
   43    45     0     0     0
SMALL
NO_CHARGES

@<TRIPOS>ATOM
      1 C1         -6.1194   -2.4555   -2.0482 C.ar      1 <0>         0.0000
      2 C2         -5.7841   -3.3195   -3.1117 C.ar      1 <0>         0.0000
      3 C3         -5.2259   -1.4715   -1.6283 C.ar      1 <0>         0.0000
      4 C4         -4.5666   -3.2167   -3.7877 C.ar      1 <0>         0.0000
      5 C5         -3.9984   -1.3753   -2.2909 C.ar      1 <0>         0.0000
      6 C6         -3.6856   -2.2182   -3.3615 C.ar      1 <0>         0.0000
      7 C7         -2.8571   -0.4724   -2.0830 C.2       1 <0>         0.0000
      8 C8         -0.1925    0.9338   -2.5880 C.2       1 <0>         0.0000
      9 C9         -0.1656   -1.2885    0.1049 C.3       1 <0>         0.0000
     10 C10         0.6116   -1.0023   -1.1858 C.3       1 <0>         0.0000
     11 C11         0.9972    1.3111   -0.4995 C.3       1 <0>         0.0000
     12 C12         0.1930    1.1128    0.7967 C.3       1 <0>         0.0000
     13 C13         0.2337   -0.3631    1.2731 C.3       1 <0>         0.0000
     14 C14         0.6375    2.1158    1.8656 C.3       1 <0>         0.0000
     15 C15         1.5845   -0.7708    1.8648 C.3       1 <0>         0.0000
     16 C16        -0.8712   -0.0286   -3.5770 C.3       1 <0>         0.0000
     17 N1         -2.4313   -1.8689   -3.9002 N.pl3     1 <0>         0.0000
     18 N2         -1.8805   -0.9105   -2.9905 N.am      1 <0>         0.0000
     19 N3          0.5242    0.4094   -1.5496 N.am      1 <0>         0.0000
     20 O1         -2.7184    0.4628   -1.2983 O.2       1 <0>         0.0000
     21 O2         -0.2497    2.1395   -2.8255 O.2       1 <0>         0.0000
     22 O3         -0.7043   -0.5528    2.3518 O.3       1 <0>         0.0000
     23 H1         -7.0819   -2.5636   -1.5566 H         1 <0>         0.0000
     24 H2         -6.4959   -4.0805   -3.4207 H         1 <0>         0.0000
     25 H3         -5.4590   -0.7963   -0.8100 H         1 <0>         0.0000
     26 H4         -4.3257   -3.8763   -4.6169 H         1 <0>         0.0000
     27 H5         -1.2303   -1.1448   -0.0969 H         1 <0>         0.0000
     28 H6         -0.0213   -2.3323    0.4056 H         1 <0>         0.0000
     29 H7          1.6731   -1.2507   -1.0538 H         1 <0>         0.0000
     30 H8          0.2359   -1.6258   -1.9956 H         1 <0>         0.0000
     31 H9          0.8901    2.3321   -0.8632 H         1 <0>         0.0000
     32 H10         2.0652    1.1246   -0.3257 H         1 <0>         0.0000
     33 H11        -0.8532    1.3210    0.5356 H         1 <0>         0.0000
     34 H12         1.7189    2.0751    2.0364 H         1 <0>         0.0000
     35 H13         0.1367    1.9172    2.8171 H         1 <0>         0.0000
     36 H14         0.3911    3.1364    1.5547 H         1 <0>         0.0000
     37 H15         1.8096   -0.1777    2.7537 H         1 <0>         0.0000
     38 H16         2.4001   -0.6411    1.1483 H         1 <0>         0.0000
     39 H17         1.5519   -1.8229    2.1627 H         1 <0>         0.0000
     40 H18        -0.1104   -0.6599   -4.0499 H         1 <0>         0.0000
     41 H19        -1.3201    0.6021   -4.3481 H         1 <0>         0.0000
     42 H20        -1.7946   -2.6606   -3.9949 H         1 <0>         0.0000
     43 H21        -1.5815   -0.2967    2.0208 H         1 <0>         0.0000
@<TRIPOS>BOND
     1    1    2 ar
     2    1    3 ar
     3    1   23 1
     4    2    4 ar
     5    2   24 1
     6    3    5 ar
     7    3   25 1
     8    4    6 ar
     9    4   26 1
    10    5    6 ar
    11    5    7 1
    12    6   17 1
    13    7   18 am
    14    7   20 2
    15    8   16 1
    16    8   19 am
    17    8   21 2
    18    9   10 1
    19    9   13 1
    20    9   27 1
    21    9   28 1
    22   10   19 1
    23   10   29 1
    24   10   30 1
    25   11   12 1
    26   11   19 1
    27   11   31 1
    28   11   32 1
    29   12   13 1
    30   12   14 1
    31   12   33 1
    32   13   15 1
    33   13   22 1
    34   14   34 1
    35   14   35 1
    36   14   36 1
    37   15   37 1
    38   15   38 1
    39   15   39 1
    40   16   18 1
    41   16   40 1
    42   16   41 1
    43   17   18 1
    44   17   42 1
    45   22   43 1
