@<TRIPOS>MOLECULE
*****
   25    26     0     0     0
SMALL
NO_CHARGES

@<TRIPOS>ATOM
      1 C1          6.6332   -1.2729    2.9234 C.ar      1 <0>         0.0000
      2 C2          6.2898   -0.6603    4.1314 C.ar      1 <0>         0.0000
      3 C3          5.7969   -1.0932    1.8224 C.ar      1 <0>         0.0000
      4 C4          1.0496   -0.3163    3.0536 C.ar      1 <0>         0.0000
      5 C5          0.9090   -1.4762    0.9571 C.ar      1 <0>         0.0000
      6 C6          5.1212    0.1085    4.1846 C.ar      1 <0>         0.0000
      7 C7          0.1749   -1.2651    3.5792 C.ar      1 <0>         0.0000
      8 C8          1.4241   -0.4133    1.7066 C.ar      1 <0>         0.0000
      9 C9          4.6465   -0.3093    1.9790 C.ar      1 <0>         0.0000
     10 C10         0.0475   -2.3686    1.6017 C.ar      1 <0>         0.0000
     11 C11         3.7221   -0.1150    0.8076 C.2       1 <0>         0.0000
     12 C12         2.3848    0.5716    1.0696 C.3       1 <0>         0.0000
     13 N1          4.3093    0.2847    3.1371 N.ar      1 <0>         0.0000
     14 N2         -0.3261   -2.2880    2.8649 N.ar      1 <0>         0.0000
     15 O1          4.0198   -0.5327   -0.3023 O.2       1 <0>         0.0000
     16 Br1        -0.6598   -3.8473    0.5824 Br        1 <0>         0.0000
     17 H1          7.5323   -1.8782    2.8438 H         1 <0>         0.0000
     18 H2          6.9088   -0.7718    5.0170 H         1 <0>         0.0000
     19 H3          6.0039   -1.5408    0.8560 H         1 <0>         0.0000
     20 H4          1.4444    0.4766    3.6801 H         1 <0>         0.0000
     21 H5          1.1730   -1.6096   -0.0867 H         1 <0>         0.0000
     22 H6          4.8278    0.6007    5.1103 H         1 <0>         0.0000
     23 H7         -0.1419   -1.2132    4.6191 H         1 <0>         0.0000
     24 H8          2.0027    0.9037    0.1018 H         1 <0>         0.0000
     25 H9          2.5267    1.4292    1.7285 H         1 <0>         0.0000
@<TRIPOS>BOND
     1    1    2 ar
     2    1    3 ar
     3    1   17 1
     4    2    6 ar
     5    2   18 1
     6    3    9 ar
     7    3   19 1
     8    4    7 ar
     9    4    8 ar
    10    4   20 1
    11    5    8 ar
    12    5   10 ar
    13    5   21 1
    14    6   13 ar
    15    6   22 1
    16    7   14 ar
    17    7   23 1
    18    8   12 1
    19    9   11 1
    20    9   13 ar
    21   10   14 ar
    22   10   16 1
    23   11   12 1
    24   11   15 2
    25   12   24 1
    26   12   25 1
