@<TRIPOS>MOLECULE
*****
   32    33     0     0     0
SMALL
NO_CHARGES

@<TRIPOS>ATOM
      1 C1          5.8450   -4.0058   -3.9503 C.ar      1 <0>         0.0000
      2 C2          4.7915   -3.3844   -3.2758 C.ar      1 <0>         0.0000
      3 C3          2.8548   -1.5109    1.9471 C.ar      1 <0>         0.0000
      4 C4          1.5906   -1.2906   -0.1032 C.ar      1 <0>         0.0000
      5 C5          1.8331   -0.8977    2.6591 C.ar      1 <0>         0.0000
      6 C6          0.5649   -0.6780    0.5951 C.ar      1 <0>         0.0000
      7 C7          6.9863   -4.4174   -3.2565 C.ar      1 <0>         0.0000
      8 C8          6.0130   -3.5761   -1.1779 C.ar      1 <0>         0.0000
      9 C9          2.7589   -1.7201    0.5609 C.ar      1 <0>         0.0000
     10 C10         4.8693   -3.1669   -1.8911 C.ar      1 <0>         0.0000
     11 C11         0.6546   -0.4619    2.0003 C.ar      1 <0>         0.0000
     12 C12         7.0367   -4.1884   -1.8800 C.ar      1 <0>         0.0000
     13 C13        -1.5697    0.5817    1.9942 C.3       1 <0>         0.0000
     14 C14        -0.2545    0.3545    4.1274 C.3       1 <0>         0.0000
     15 N1          3.8526   -2.3487   -0.0501 N.2       1 <0>         0.0000
     16 N2          3.7496   -2.5298   -1.3013 N.2       1 <0>         0.0000
     17 N3         -0.3680    0.1486    2.6916 N.pl3     1 <0>         0.0000
     18 F1          8.1469   -4.5881   -1.2014 F         1 <0>         0.0000
     19 H1          5.7806   -4.1722   -5.0220 H         1 <0>         0.0000
     20 H2          3.8986   -3.0593   -3.8011 H         1 <0>         0.0000
     21 H3          3.7556   -1.8428    2.4564 H         1 <0>         0.0000
     22 H4          1.5085   -1.4486   -1.1735 H         1 <0>         0.0000
     23 H5          1.9506   -0.7575    3.7267 H         1 <0>         0.0000
     24 H6         -0.3177   -0.3614    0.0518 H         1 <0>         0.0000
     25 H7          7.8203   -4.9026   -3.7541 H         1 <0>         0.0000
     26 H8          6.0845   -3.4134   -0.1086 H         1 <0>         0.0000
     27 H9         -2.2555    1.0379    2.7084 H         1 <0>         0.0000
     28 H10        -2.0898   -0.2602    1.5185 H         1 <0>         0.0000
     29 H11        -1.3441    1.3275    1.2209 H         1 <0>         0.0000
     30 H12        -1.1542    0.8494    4.4935 H         1 <0>         0.0000
     31 H13         0.6055    0.9890    4.3789 H         1 <0>         0.0000
     32 H14        -0.1487   -0.5962    4.6667 H         1 <0>         0.0000
@<TRIPOS>BOND
     1    1    2 ar
     2    1    7 ar
     3    1   19 1
     4    2   10 ar
     5    2   20 1
     6    3    5 ar
     7    3    9 ar
     8    3   21 1
     9    4    6 ar
    10    4    9 ar
    11    4   22 1
    12    5   11 ar
    13    5   23 1
    14    6   11 ar
    15    6   24 1
    16    7   12 ar
    17    7   25 1
    18    8   10 ar
    19    8   12 ar
    20    8   26 1
    21    9   15 1
    22   10   16 1
    23   11   17 1
    24   12   18 1
    25   13   17 1
    26   13   27 1
    27   13   28 1
    28   13   29 1
    29   14   17 1
    30   14   30 1
    31   14   31 1
    32   14   32 1
    33   15   16 2
