@<TRIPOS>MOLECULE
*****
   29    30     0     0     0
SMALL
NO_CHARGES

@<TRIPOS>ATOM
      1 C1          0.2544    1.2938   -5.4092 C.ar      1 <0>         0.0000
      2 C2         -1.2082   -0.1008   -4.1243 C.ar      1 <0>         0.0000
      3 C3         -0.8869    1.8897   -5.9556 C.ar      1 <0>         0.0000
      4 C4         -2.2757    0.5544   -4.7333 C.ar      1 <0>         0.0000
      5 C5          0.1064    0.2673   -4.4640 C.ar      1 <0>         0.0000
      6 C6          1.8634   -2.2280   -0.8596 C.ar      1 <0>         0.0000
      7 C7          2.9381   -2.2718    0.0421 C.ar      1 <0>         0.0000
      8 C8          0.6585   -2.8135   -0.4358 C.ar      1 <0>         0.0000
      9 C9          2.8353   -2.8498    1.2993 C.ar      1 <0>         0.0000
     10 C10         0.5479   -3.3790    0.8337 C.ar      1 <0>         0.0000
     11 C11         1.6269   -3.4098    1.7199 C.ar      1 <0>         0.0000
     12 C12         1.2696   -0.4001   -3.8334 C.2       1 <0>         0.0000
     13 C13         2.6415   -0.3349   -4.4624 C.3       1 <0>         0.0000
     14 N1         -2.1386    1.5382   -5.6397 N.ar      1 <0>         0.0000
     15 N2          1.0252   -1.0343   -2.7333 N.2       1 <0>         0.0000
     16 N3          2.0674   -1.6743   -2.1192 N.pl3     1 <0>         0.0000
     17 F1          4.1150   -1.7180   -0.3420 F         1 <0>         0.0000
     18 F2         -0.4074   -2.8765   -1.2495 F         1 <0>         0.0000
     19 F3          3.9067   -2.8457    2.1047 F         1 <0>         0.0000
     20 F4         -0.6266   -3.9211    1.1848 F         1 <0>         0.0000
     21 Br1         1.4639   -4.1942    3.4336 Br        1 <0>         0.0000
     22 H1          1.2317    1.6533   -5.7155 H         1 <0>         0.0000
     23 H2         -1.3813   -0.8886   -3.3993 H         1 <0>         0.0000
     24 H3         -0.7825    2.6916   -6.6852 H         1 <0>         0.0000
     25 H4         -3.2982    0.2742   -4.4854 H         1 <0>         0.0000
     26 H5          3.3205    0.3136   -3.8926 H         1 <0>         0.0000
     27 H6          3.0877   -1.3355   -4.4988 H         1 <0>         0.0000
     28 H7          2.6049    0.0422   -5.4835 H         1 <0>         0.0000
     29 H8          3.0137   -1.3415   -2.2863 H         1 <0>         0.0000
@<TRIPOS>BOND
     1    1    3 ar
     2    1    5 ar
     3    1   22 1
     4    2    4 ar
     5    2    5 ar
     6    2   23 1
     7    3   14 ar
     8    3   24 1
     9    4   14 ar
    10    4   25 1
    11    5   12 1
    12    6    7 ar
    13    6    8 ar
    14    6   16 1
    15    7    9 ar
    16    7   17 1
    17    8   10 ar
    18    8   18 1
    19    9   11 ar
    20    9   19 1
    21   10   11 ar
    22   10   20 1
    23   11   21 1
    24   12   13 1
    25   12   15 2
    26   13   26 1
    27   13   27 1
    28   13   28 1
    29   15   16 1
    30   16   29 1
