@<TRIPOS>MOLECULE
*****
   47    49     0     0     0
SMALL
NO_CHARGES

@<TRIPOS>ATOM
      1 C1          1.4252    5.7132    4.9342 C.ar      1 <0>         0.0000
      2 C2          0.6155    5.5794    3.8063 C.ar      1 <0>         0.0000
      3 C3          2.5869    4.9505    5.0534 C.ar      1 <0>         0.0000
      4 C4         -0.3127   -0.5940    0.8548 C.ar      1 <0>         0.0000
      5 C5         -0.8285   -1.8784    0.6536 C.ar      1 <0>         0.0000
      6 C6          0.9677    4.6829    2.7974 C.ar      1 <0>         0.0000
      7 C7          2.9390    4.0540    4.0445 C.ar      1 <0>         0.0000
      8 C8         -0.5886   -0.8098    3.2559 C.ar      1 <0>         0.0000
      9 C9         -1.0988   -2.0823    3.0475 C.ar      1 <0>         0.0000
     10 C10        -0.1936   -0.0629    2.1465 C.ar      1 <0>         0.0000
     11 C11        -1.2194   -2.6147    1.7624 C.ar      1 <0>         0.0000
     12 C12         2.1295    3.9201    2.9165 C.ar      1 <0>         0.0000
     13 C13        -2.0217   -4.7436    0.7445 C.2       1 <0>         0.0000
     14 C14        -1.5756   -3.0405    4.0892 C.3       1 <0>         0.0000
     15 C15        -2.0088   -4.2452    3.2470 C.3       1 <0>         0.0000
     16 C16        -4.1236   -5.9963    1.1588 C.3       1 <0>         0.0000
     17 C17        -2.1529   -7.1463    0.1043 C.3       1 <0>         0.0000
     18 C18         0.3592    1.3102    2.3341 C.3       1 <0>         0.0000
     19 C19        -2.6061   -6.0899    1.1020 C.3       1 <0>         0.0000
     20 N1         -1.7624   -3.9148    1.8275 N.am      1 <0>         0.0000
     21 N2          1.7892    1.3523    2.1640 N.pl3     1 <0>         0.0000
     22 O1         -1.8174   -4.4706   -0.4385 O.2       1 <0>         0.0000
     23 O2          1.9557    3.2331    0.4049 O.2       1 <0>         0.0000
     24 O3          4.0166    2.6161    1.7075 O.2       1 <0>         0.0000
     25 S1          2.5779    2.7863    1.6366 S.o2      1 <0>         0.0000
     26 H1          1.1507    6.4120    5.7192 H         1 <0>         0.0000
     27 H2         -0.2885    6.1739    3.7135 H         1 <0>         0.0000
     28 H3          3.2180    5.0551    5.9309 H         1 <0>         0.0000
     29 H4         -0.0025   -0.0069   -0.0065 H         1 <0>         0.0000
     30 H5         -0.9064   -2.2566   -0.3582 H         1 <0>         0.0000
     31 H6          0.3304    4.5877    1.9225 H         1 <0>         0.0000
     32 H7          3.8468    3.4652    4.1469 H         1 <0>         0.0000
     33 H8         -0.5003   -0.4079    4.2604 H         1 <0>         0.0000
     34 H9         -0.7655   -3.3075    4.7747 H         1 <0>         0.0000
     35 H10        -2.4198   -2.6234    4.6466 H         1 <0>         0.0000
     36 H11        -1.4381   -5.1429    3.5096 H         1 <0>         0.0000
     37 H12        -3.0731   -4.4663    3.3836 H         1 <0>         0.0000
     38 H13        -4.5509   -5.7302    0.1854 H         1 <0>         0.0000
     39 H14        -4.4483   -5.2430    1.8853 H         1 <0>         0.0000
     40 H15        -4.5516   -6.9577    1.4626 H         1 <0>         0.0000
     41 H16        -2.5118   -6.9187   -0.9057 H         1 <0>         0.0000
     42 H17        -2.5178   -8.1440    0.3737 H         1 <0>         0.0000
     43 H18        -1.0590   -7.1872    0.0675 H         1 <0>         0.0000
     44 H19        -0.0800    2.0151    1.6146 H         1 <0>         0.0000
     45 H20         0.1368    1.7000    3.3367 H         1 <0>         0.0000
     46 H21        -2.2270   -6.3564    2.0915 H         1 <0>         0.0000
     47 H22         2.3588    0.6847    2.7229 H         1 <0>         0.0000
@<TRIPOS>BOND
     1    1    3 ar
     2    1    2 ar
     3    1   26 1
     4    2    6 ar
     5    2   27 1
     6    3    7 ar
     7    3   28 1
     8    4    5 ar
     9    4   10 ar
    10    4   29 1
    11    5   11 ar
    12    5   30 1
    13    6   12 ar
    14    6   31 1
    15    7   12 ar
    16    7   32 1
    17    8    9 ar
    18    8   10 ar
    19    8   33 1
    20    9   11 ar
    21    9   14 1
    22   10   18 1
    23   11   20 1
    24   12   25 1
    25   13   19 1
    26   13   20 am
    27   13   22 2
    28   14   15 1
    29   14   34 1
    30   14   35 1
    31   15   20 1
    32   15   36 1
    33   15   37 1
    34   16   19 1
    35   16   38 1
    36   16   39 1
    37   16   40 1
    38   17   19 1
    39   17   41 1
    40   17   42 1
    41   17   43 1
    42   18   21 1
    43   18   44 1
    44   18   45 1
    45   19   46 1
    46   21   25 1
    47   21   47 1
    48   23   25 2
    49   24   25 2
