@<TRIPOS>MOLECULE
*****
   23    24     0     0     0
SMALL
NO_CHARGES

@<TRIPOS>ATOM
      1 C1          1.9617   -0.7841   -0.1110 C.ar      1 <0>         0.0000
      2 C2          0.8370   -0.3298    0.5839 C.ar      1 <0>         0.0000
      3 C3          2.9727   -1.4527    0.5757 C.ar      1 <0>         0.0000
      4 C4          0.7398   -0.5470    1.9588 C.ar      1 <0>         0.0000
      5 C5          2.8781   -1.6808    1.9607 C.ar      1 <0>         0.0000
      6 C6          1.7424   -1.2195    2.6710 C.ar      1 <0>         0.0000
      7 C7          3.9808   -2.3919    2.6140 C.2       1 <0>         0.0000
      8 C8          5.3203   -3.4648    3.8400 C.2       1 <0>         0.0000
      9 C9          5.8669   -4.1947    5.0204 C.3       1 <0>         0.0000
     10 C10         1.5667   -1.3862    4.1466 C.3       1 <0>         0.0000
     11 N1          4.0435   -2.9419    3.8011 N.2       1 <0>         0.0000
     12 N2          6.0185   -3.2615    2.7464 N.2       1 <0>         0.0000
     13 O1          5.1312   -2.5426    1.9181 O.3       1 <0>         0.0000
     14 Br1         2.5307    0.0626    5.1424 Br        1 <0>         0.0000
     15 H1          2.0512   -0.6200   -1.1810 H         1 <0>         0.0000
     16 H2          0.0419    0.1933    0.0596 H         1 <0>         0.0000
     17 H3          3.8464   -1.8100    0.0414 H         1 <0>         0.0000
     18 H4         -0.1279   -0.1792    2.5006 H         1 <0>         0.0000
     19 H5          5.2481   -5.0697    5.2403 H         1 <0>         0.0000
     20 H6          6.8918   -4.5161    4.8283 H         1 <0>         0.0000
     21 H7          5.8492   -3.5447    5.9001 H         1 <0>         0.0000
     22 H8          1.9936   -2.3028    4.5383 H         1 <0>         0.0000
     23 H9          0.5258   -1.2720    4.4411 H         1 <0>         0.0000
@<TRIPOS>BOND
     1    1    2 ar
     2    1    3 ar
     3    1   15 1
     4    2    4 ar
     5    2   16 1
     6    3    5 ar
     7    3   17 1
     8    4    6 ar
     9    4   18 1
    10    5    6 ar
    11    5    7 1
    12    6   10 1
    13    7   11 2
    14    7   13 1
    15    8    9 1
    16    8   11 1
    17    8   12 2
    18    9   19 1
    19    9   20 1
    20    9   21 1
    21   10   14 1
    22   10   22 1
    23   10   23 1
    24   12   13 1
