@<TRIPOS>MOLECULE
*****
   30    31     0     0     0
SMALL
NO_CHARGES

@<TRIPOS>ATOM
      1 C1         -0.2188   -3.2067    0.3203 C.ar      1 <0>         0.0000
      2 C2          3.4615   -2.9096   -0.2503 C.ar      1 <0>         0.0000
      3 C3         -0.6013   -1.8843    0.3048 C.ar      1 <0>         0.0000
      4 C4          3.8584   -4.2287   -0.2397 C.ar      1 <0>         0.0000
      5 C5          1.6706   -1.1830   -0.0838 C.ar      1 <0>         0.0000
      6 C6          1.5658   -4.9410    0.1394 C.ar      1 <0>         0.0000
      7 C7          2.0992   -2.5386   -0.0678 C.ar      1 <0>         0.0000
      8 C8          1.1409   -3.5810    0.1310 C.ar      1 <0>         0.0000
      9 C9          0.3419   -0.8306    0.0897 C.ar      1 <0>         0.0000
     10 C10         2.8989   -5.2572   -0.0421 C.ar      1 <0>         0.0000
     11 C11        -0.6948    0.9423    1.5670 C.2       1 <0>         0.0000
     12 C12         0.8609    1.6195   -0.3992 C.3       1 <0>         0.0000
     13 C13         2.4996   -7.6024    0.1637 C.3       1 <0>         0.0000
     14 C14        -0.1547    0.5929    0.0991 C.3       1 <0>         0.0000
     15 O1          0.0702    1.6432    2.2734 O.co2     1 <0>         0.0000
     16 O2         -1.8298    0.4591    1.8270 O.co2     1 <0>         0.0000
     17 O3          3.4146   -6.5416   -0.0492 O.3       1 <0>         0.0000
     18 H1         -0.9599   -3.9868    0.4909 H         1 <0>         0.0000
     19 H2          4.2020   -2.1258   -0.3983 H         1 <0>         0.0000
     20 H3         -1.6305   -1.5956    0.4979 H         1 <0>         0.0000
     21 H4          4.8984   -4.5127   -0.3766 H         1 <0>         0.0000
     22 H5          2.4221   -0.4129   -0.2350 H         1 <0>         0.0000
     23 H6          0.8160   -5.7105    0.2958 H         1 <0>         0.0000
     24 H7          1.6936    1.7073    0.3040 H         1 <0>         0.0000
     25 H8          1.2494    1.3676   -1.3967 H         1 <0>         0.0000
     26 H9          0.3911    2.6070   -0.4511 H         1 <0>         0.0000
     27 H10         3.0871   -8.5231    0.1331 H         1 <0>         0.0000
     28 H11         1.7309   -7.6373   -0.6206 H         1 <0>         0.0000
     29 H12         2.0056   -7.5199    1.1414 H         1 <0>         0.0000
     30 H13        -1.0478    0.6268   -0.5363 H         1 <0>         0.0000
@<TRIPOS>BOND
     1    1    3 ar
     2    1    8 ar
     3    1   18 1
     4    2    4 ar
     5    2    7 ar
     6    2   19 1
     7    3    9 ar
     8    3   20 1
     9    4   10 ar
    10    4   21 1
    11    5    7 ar
    12    5    9 ar
    13    5   22 1
    14    6    8 ar
    15    6   10 ar
    16    6   23 1
    17    7    8 ar
    18    9   14 1
    19   10   17 1
    20   11   14 1
    21   11   15 1
    22   11   16 2
    23   12   14 1
    24   12   24 1
    25   12   25 1
    26   12   26 1
    27   13   17 1
    28   13   27 1
    29   13   28 1
    30   13   29 1
    31   14   30 1
