@<TRIPOS>MOLECULE
*****
   30    31     0     0     0
SMALL
NO_CHARGES

@<TRIPOS>ATOM
      1 C1          0.4652   -3.2982    1.0458 C.ar      1 <0>         0.0000
      2 C2          3.4544   -3.1022   -1.1852 C.ar      1 <0>         0.0000
      3 C3         -0.0171   -2.0141    0.9566 C.ar      1 <0>         0.0000
      4 C4          3.9581   -4.3906   -1.1131 C.ar      1 <0>         0.0000
      5 C5          1.7565   -1.3930   -0.5540 C.ar      1 <0>         0.0000
      6 C6          2.1574   -5.0100    0.3929 C.ar      1 <0>         0.0000
      7 C7          2.2891   -2.7118   -0.4794 C.ar      1 <0>         0.0000
      8 C8          1.6316   -3.6968    0.3288 C.ar      1 <0>         0.0000
      9 C9          0.6158   -1.0235    0.1360 C.ar      1 <0>         0.0000
     10 C10         3.2974   -5.3560   -0.3118 C.ar      1 <0>         0.0000
     11 C11         0.1710    1.0240    1.5539 C.2       1 <0>         0.0000
     12 C12         0.5874    1.2609   -0.9993 C.3       1 <0>         0.0000
     13 C13         4.9215   -7.0355   -0.8515 C.3       1 <0>         0.0000
     14 C14         0.0249    0.3622    0.1004 C.3       1 <0>         0.0000
     15 O1          1.0931    1.8671    1.6744 O.co2     1 <0>         0.0000
     16 O2         -0.6663    0.6044    2.3972 O.co2     1 <0>         0.0000
     17 O3          3.7287   -6.6680   -0.1827 O.3       1 <0>         0.0000
     18 H1         -0.0357   -4.0282    1.6799 H         1 <0>         0.0000
     19 H2          3.9663   -2.3635   -1.7990 H         1 <0>         0.0000
     20 H3         -0.8764   -1.6961    1.5401 H         1 <0>         0.0000
     21 H4          4.8537   -4.6452   -1.6697 H         1 <0>         0.0000
     22 H5          2.2760   -0.6681   -1.1746 H         1 <0>         0.0000
     23 H6          1.6687   -5.7645    1.0052 H         1 <0>         0.0000
     24 H7          1.6324    1.5090   -0.7946 H         1 <0>         0.0000
     25 H8          0.5097    0.7967   -1.9933 H         1 <0>         0.0000
     26 H9          0.0395    2.2086   -1.0171 H         1 <0>         0.0000
     27 H10         5.0953   -8.0857   -0.6047 H         1 <0>         0.0000
     28 H11         5.7807   -6.4407   -0.5122 H         1 <0>         0.0000
     29 H12         4.8279   -6.9359   -1.9420 H         1 <0>         0.0000
     30 H13        -1.0566    0.2482   -0.0400 H         1 <0>         0.0000
@<TRIPOS>BOND
     1    1    3 ar
     2    1    8 ar
     3    1   18 1
     4    2    4 ar
     5    2    7 ar
     6    2   19 1
     7    3    9 ar
     8    3   20 1
     9    4   10 ar
    10    4   21 1
    11    5    7 ar
    12    5    9 ar
    13    5   22 1
    14    6    8 ar
    15    6   10 ar
    16    6   23 1
    17    7    8 ar
    18    9   14 1
    19   10   17 1
    20   11   14 1
    21   11   15 1
    22   11   16 2
    23   12   14 1
    24   12   24 1
    25   12   25 1
    26   12   26 1
    27   13   17 1
    28   13   27 1
    29   13   28 1
    30   13   29 1
    31   14   30 1
