@<TRIPOS>MOLECULE
*****
   64    65     0     0     0
SMALL
NO_CHARGES

@<TRIPOS>ATOM
      1 C1          4.3870   -0.5627   -6.2510 C.ar      1 <0>         0.0000
      2 C2          5.4675    0.0469   -5.6083 C.ar      1 <0>         0.0000
      3 C3          3.5964   -1.3915   -4.1273 C.ar      1 <0>         0.0000
      4 C4          3.4369   -1.2824   -5.5142 C.ar      1 <0>         0.0000
      5 C5          2.2375   -1.8843   -6.1741 C.ar      1 <0>         0.0000
      6 C6          4.6565   -0.7775   -3.4475 C.ar      1 <0>         0.0000
      7 C7          1.0719   -1.1051   -6.3224 C.ar      1 <0>         0.0000
      8 C8          2.2539   -3.2210   -6.6045 C.ar      1 <0>         0.0000
      9 C9          5.5698   -0.0645   -4.2266 C.ar      1 <0>         0.0000
     10 C10        -0.0503   -1.7292   -6.9004 C.ar      1 <0>         0.0000
     11 C11         1.0764   -3.7480   -7.1706 C.ar      1 <0>         0.0000
     12 C12         4.1339    0.4333   -1.2949 C.3       1 <0>         0.0000
     13 C13         0.4323    3.1959   -1.6094 C.3       1 <0>         0.0000
     14 C14        -2.4954   -1.7607   -6.3212 C.3       1 <0>         0.0000
     15 C15        -1.7279   -0.9414   -8.5975 C.3       1 <0>         0.0000
     16 C16         0.4153   -5.2903   -9.0541 C.3       1 <0>         0.0000
     17 C17         0.0189   -5.9470   -6.6311 C.3       1 <0>         0.0000
     18 C18         4.7633   -0.8151   -1.9417 C.3       1 <0>         0.0000
     19 C19         1.0338    0.3148   -5.7955 C.3       1 <0>         0.0000
     20 C20         3.4828   -4.0738   -6.4192 C.3       1 <0>         0.0000
     21 C21         0.1614    1.8430   -2.2763 C.3       1 <0>         0.0000
     22 C22         0.4885    0.3913   -4.3567 C.3       1 <0>         0.0000
     23 C23         0.6923    1.7648   -3.7122 C.3       1 <0>         0.0000
     24 C24        -1.3877   -1.0294   -7.0995 C.3       1 <0>         0.0000
     25 C25         0.9390   -5.1970   -7.6121 C.3       1 <0>         0.0000
     26 N1         -0.0262   -3.0050   -7.3093 N.ar      1 <0>         0.0000
     27 O1          3.2510   -4.9634   -5.3088 O.3       1 <0>         0.0000
     28 F1          6.6135    0.5555   -3.6043 F         1 <0>         0.0000
     29 H1          4.2763   -0.4707   -7.3281 H         1 <0>         0.0000
     30 H2          6.2154    0.6101   -6.1584 H         1 <0>         0.0000
     31 H3          2.8723   -1.9689   -3.5582 H         1 <0>         0.0000
     32 H4          4.6431    1.3426   -1.6283 H         1 <0>         0.0000
     33 H5          4.2048    0.3839   -0.2032 H         1 <0>         0.0000
     34 H6          3.0765    0.5211   -1.5654 H         1 <0>         0.0000
     35 H7         -0.0341    4.0139   -2.1707 H         1 <0>         0.0000
     36 H8          0.0388    3.2255   -0.5876 H         1 <0>         0.0000
     37 H9          1.5081    3.4006   -1.5591 H         1 <0>         0.0000
     38 H10        -2.5971   -2.7878   -6.6820 H         1 <0>         0.0000
     39 H11        -3.4555   -1.2480   -6.4476 H         1 <0>         0.0000
     40 H12        -2.2670   -1.7991   -5.2504 H         1 <0>         0.0000
     41 H13        -1.7929   -1.9441   -9.0294 H         1 <0>         0.0000
     42 H14        -0.9601   -0.3846   -9.1462 H         1 <0>         0.0000
     43 H15        -2.6881   -0.4347   -8.7456 H         1 <0>         0.0000
     44 H16        -0.5704   -4.8243   -9.1335 H         1 <0>         0.0000
     45 H17         0.3317   -6.3385   -9.3625 H         1 <0>         0.0000
     46 H18         1.0867   -4.7815   -9.7550 H         1 <0>         0.0000
     47 H19        -0.9766   -5.4923   -6.6227 H         1 <0>         0.0000
     48 H20         0.4275   -5.9128   -5.6168 H         1 <0>         0.0000
     49 H21        -0.0823   -6.9972   -6.9279 H         1 <0>         0.0000
     50 H22         4.2595   -1.7141   -1.5719 H         1 <0>         0.0000
     51 H23         5.8135   -0.8876   -1.6429 H         1 <0>         0.0000
     52 H24         2.0434    0.7322   -5.8039 H         1 <0>         0.0000
     53 H25         0.4363    0.9581   -6.4488 H         1 <0>         0.0000
     54 H26         3.6902   -4.6508   -7.3303 H         1 <0>         0.0000
     55 H27         4.3526   -3.4400   -6.2201 H         1 <0>         0.0000
     56 H28         0.6202    1.0436   -1.6792 H         1 <0>         0.0000
     57 H29        -0.9178    1.6406   -2.2763 H         1 <0>         0.0000
     58 H30         0.9931   -0.3673   -3.7477 H         1 <0>         0.0000
     59 H31        -0.5763    0.1251   -4.3522 H         1 <0>         0.0000
     60 H32         1.7653    2.0016   -3.7139 H         1 <0>         0.0000
     61 H33         0.2072    2.5385   -4.3237 H         1 <0>         0.0000
     62 H34        -1.3214   -0.0120   -6.7074 H         1 <0>         0.0000
     63 H35         1.9192   -5.6771   -7.5685 H         1 <0>         0.0000
     64 H36         4.0520   -5.4975   -5.1851 H         1 <0>         0.0000
@<TRIPOS>BOND
     1    1    2 ar
     2    1    4 ar
     3    1   29 1
     4    2    9 ar
     5    2   30 1
     6    3    4 ar
     7    3    6 ar
     8    3   31 1
     9    4    5 1
    10    5    7 ar
    11    5    8 ar
    12    6    9 ar
    13    6   18 1
    14    7   10 ar
    15    7   19 1
    16    8   11 ar
    17    8   20 1
    18    9   28 1
    19   10   24 1
    20   10   26 ar
    21   11   25 1
    22   11   26 ar
    23   12   18 1
    24   12   32 1
    25   12   33 1
    26   12   34 1
    27   13   21 1
    28   13   35 1
    29   13   36 1
    30   13   37 1
    31   14   24 1
    32   14   38 1
    33   14   39 1
    34   14   40 1
    35   15   24 1
    36   15   41 1
    37   15   42 1
    38   15   43 1
    39   16   25 1
    40   16   44 1
    41   16   45 1
    42   16   46 1
    43   17   25 1
    44   17   47 1
    45   17   48 1
    46   17   49 1
    47   18   50 1
    48   18   51 1
    49   19   22 1
    50   19   52 1
    51   19   53 1
    52   20   27 1
    53   20   54 1
    54   20   55 1
    55   21   23 1
    56   21   56 1
    57   21   57 1
    58   22   23 1
    59   22   58 1
    60   22   59 1
    61   23   60 1
    62   23   61 1
    63   24   62 1
    64   25   63 1
    65   27   64 1
