@<TRIPOS>MOLECULE
*****
   39    39     0     0     0
SMALL
NO_CHARGES

@<TRIPOS>ATOM
      1 C1          9.7609   -1.6216   -1.0874 C.2       1 <0>         0.0000
      2 C2          8.0293   -1.9994    0.4919 C.2       1 <0>         0.0000
      3 C3         11.5494   -2.0422   -2.6965 C.2       1 <0>         0.0000
      4 C4         11.0737   -1.7657    6.6756 C.3       1 <0>         0.0000
      5 C5         10.4582    0.1639   -2.5969 C.3       1 <0>         0.0000
      6 C6         13.0093   -3.9738   -2.6375 C.3       1 <0>         0.0000
      7 C7         12.5402   -2.7877   -0.5216 C.3       1 <0>         0.0000
      8 C8         10.4839   -1.3108    5.3363 C.3       1 <0>         0.0000
      9 C9          9.2973   -2.1707    4.8842 C.3       1 <0>         0.0000
     10 C10         8.7049   -1.7041    3.5479 C.3       1 <0>         0.0000
     11 C11         7.5451   -2.5848    3.1004 C.3       1 <0>         0.0000
     12 N1          9.5986   -2.8973   -0.8037 N.2       1 <0>         0.0000
     13 N2          8.5969   -3.0978    0.1135 N.2       1 <0>         0.0000
     14 N3         10.7207   -1.1278   -1.9441 N.am      1 <0>         0.0000
     15 N4         12.3380   -2.8688   -1.9611 N.am      1 <0>         0.0000
     16 O1         11.5483   -1.9872   -3.9227 O.2       1 <0>         0.0000
     17 O2          6.4445   -0.4002    1.8802 O.2       1 <0>         0.0000
     18 S1          8.6550   -0.5355   -0.2395 S.3       1 <0>         0.0000
     19 S2          6.6284   -1.8896    1.6474 S.o       1 <0>         0.0000
     20 H1         10.3241   -1.7182    7.4739 H         1 <0>         0.0000
     21 H2         11.4321   -2.8001    6.6193 H         1 <0>         0.0000
     22 H3         11.9183   -1.1358    6.9740 H         1 <0>         0.0000
     23 H4         10.3852    0.9468   -1.8362 H         1 <0>         0.0000
     24 H5          9.5384    0.1388   -3.1899 H         1 <0>         0.0000
     25 H6         11.2916    0.3896   -3.2589 H         1 <0>         0.0000
     26 H7         14.0977   -3.8565   -2.5745 H         1 <0>         0.0000
     27 H8         12.7136   -3.9871   -3.6846 H         1 <0>         0.0000
     28 H9         12.7274   -4.9208   -2.1630 H         1 <0>         0.0000
     29 H10        11.9559   -3.5507    0.0031 H         1 <0>         0.0000
     30 H11        12.2535   -1.8043   -0.1506 H         1 <0>         0.0000
     31 H12        13.6046   -2.9378   -0.3108 H         1 <0>         0.0000
     32 H13        11.2635   -1.3367    4.5637 H         1 <0>         0.0000
     33 H14        10.1620   -0.2643    5.4117 H         1 <0>         0.0000
     34 H15         8.5176   -2.1465    5.6573 H         1 <0>         0.0000
     35 H16         9.6181   -3.2181    4.8024 H         1 <0>         0.0000
     36 H17         9.4855   -1.7125    2.7788 H         1 <0>         0.0000
     37 H18         8.3524   -0.6706    3.6346 H         1 <0>         0.0000
     38 H19         6.7769   -2.6703    3.8768 H         1 <0>         0.0000
     39 H20         7.8553   -3.5891    2.7948 H         1 <0>         0.0000
@<TRIPOS>BOND
     1    1   12 2
     2    1   14 1
     3    1   18 1
     4    2   13 2
     5    2   18 1
     6    2   19 1
     7    3   14 am
     8    3   15 am
     9    3   16 2
    10    4    8 1
    11    4   20 1
    12    4   21 1
    13    4   22 1
    14    5   14 1
    15    5   23 1
    16    5   24 1
    17    5   25 1
    18    6   15 1
    19    6   26 1
    20    6   27 1
    21    6   28 1
    22    7   15 1
    23    7   29 1
    24    7   30 1
    25    7   31 1
    26    8    9 1
    27    8   32 1
    28    8   33 1
    29    9   10 1
    30    9   34 1
    31    9   35 1
    32   10   11 1
    33   10   36 1
    34   10   37 1
    35   11   19 1
    36   11   38 1
    37   11   39 1
    38   12   13 1
    39   17   19 2
