@<TRIPOS>MOLECULE
*****
   38    38     0     0     0
SMALL
NO_CHARGES

@<TRIPOS>ATOM
      1 C1          0.0318   -1.4074   -2.3936 C.3       1 <0>         0.0000
      2 C2          1.2446   -2.3253   -2.0768 C.3       1 <0>         0.0000
      3 C3         -0.7896   -1.3935   -1.0892 C.3       1 <0>         0.0000
      4 C4          1.0243   -2.7912   -0.6203 C.3       1 <0>         0.0000
      5 C5          1.5048   -4.2112   -0.3224 C.3       1 <0>         0.0000
      6 C6          3.0262   -4.3592   -0.4499 C.3       1 <0>         0.0000
      7 C7          7.1020   -7.9461    0.0907 C.3       1 <0>         0.0000
      8 C8          7.3880   -9.4146    0.4270 C.3       1 <0>         0.0000
      9 C9          3.4702   -5.7875   -0.1329 C.3       1 <0>         0.0000
     10 C10         5.5976   -7.6751    0.1325 C.3       1 <0>         0.0000
     11 C11         8.8667   -9.7397    0.4244 C.3       1 <0>         0.0000
     12 N1         -0.4341   -2.6750   -0.4631 N.3       1 <0>         0.0000
     13 O1          5.8879   -5.1027    0.7879 O.2       1 <0>         0.0000
     14 O2          5.6529   -5.7153   -1.6823 O.2       1 <0>         0.0000
     15 F1          9.0798  -11.0475    0.7192 F         1 <0>         0.0000
     16 F2          9.4386   -9.5041   -0.7831 F         1 <0>         0.0000
     17 F3          9.5503   -9.0078    1.3398 F         1 <0>         0.0000
     18 S1          5.2775   -5.9270   -0.2720 S.o2      1 <0>         0.0000
     19 H1          0.3337   -0.3992   -2.6895 H         1 <0>         0.0000
     20 H2         -0.5606   -1.8271   -3.2108 H         1 <0>         0.0000
     21 H3          1.2565   -3.1908   -2.7471 H         1 <0>         0.0000
     22 H4          2.2020   -1.8107   -2.1911 H         1 <0>         0.0000
     23 H5         -0.4957   -0.5269   -0.4710 H         1 <0>         0.0000
     24 H6         -1.8683   -1.3333   -1.2641 H         1 <0>         0.0000
     25 H7          1.5559   -2.0925    0.0539 H         1 <0>         0.0000
     26 H8          1.1954   -4.4901    0.6943 H         1 <0>         0.0000
     27 H9          0.9930   -4.8979   -1.0076 H         1 <0>         0.0000
     28 H10         3.5285   -3.6673    0.2341 H         1 <0>         0.0000
     29 H11         3.3469   -4.1034   -1.4640 H         1 <0>         0.0000
     30 H12         7.6073   -7.2928    0.8065 H         1 <0>         0.0000
     31 H13         7.4866   -7.7092   -0.9047 H         1 <0>         0.0000
     32 H14         7.0086   -9.6734    1.4203 H         1 <0>         0.0000
     33 H15         6.9132  -10.0851   -0.2957 H         1 <0>         0.0000
     34 H16         3.2120   -6.0743    0.8910 H         1 <0>         0.0000
     35 H17         3.0432   -6.5091   -0.8359 H         1 <0>         0.0000
     36 H18         5.0540   -8.2740   -0.6043 H         1 <0>         0.0000
     37 H19         5.1809   -7.8506    1.1289 H         1 <0>         0.0000
     38 H20        -0.7022   -2.6977    0.5190 H         1 <0>         0.0000
@<TRIPOS>BOND
     1    1    2 1
     2    1    3 1
     3    1   19 1
     4    1   20 1
     5    2    4 1
     6    2   21 1
     7    2   22 1
     8    3   12 1
     9    3   23 1
    10    3   24 1
    11    4    5 1
    12    4   12 1
    13    4   25 1
    14    5    6 1
    15    5   26 1
    16    5   27 1
    17    6    9 1
    18    6   28 1
    19    6   29 1
    20    7    8 1
    21    7   10 1
    22    7   30 1
    23    7   31 1
    24    8   11 1
    25    8   32 1
    26    8   33 1
    27    9   18 1
    28    9   34 1
    29    9   35 1
    30   10   18 1
    31   10   36 1
    32   10   37 1
    33   11   15 1
    34   11   16 1
    35   11   17 1
    36   12   38 1
    37   13   18 2
    38   14   18 2
