@<TRIPOS>MOLECULE
*****
   33    33     0     0     0
SMALL
NO_CHARGES

@<TRIPOS>ATOM
      1 C1         -1.8151    0.9665    5.4963 C.ar      1 <0>         0.0000
      2 C2         -0.8996    0.8499    6.5555 C.ar      1 <0>         0.0000
      3 C3         -0.7156   -0.8432    4.3540 C.ar      1 <0>         0.0000
      4 C4         -1.7358    0.1278    4.3879 C.ar      1 <0>         0.0000
      5 C5          0.1086   -0.1118    6.5205 C.ar      1 <0>         0.0000
      6 C6          0.2006   -0.9731    5.3965 C.ar      1 <0>         0.0000
      7 C7         -5.6967   -1.9794    4.6467 C.3       1 <0>         0.0000
      8 C8          0.9979    0.5497    8.6306 C.3       1 <0>         0.0000
      9 C9          1.3571   -2.7623    4.3235 C.3       1 <0>         0.0000
     10 C10        -2.7450    0.2078    3.2640 C.3       1 <0>         0.0000
     11 C11        -3.8173   -0.8976    3.3324 C.3       1 <0>         0.0000
     12 C12        -4.6552   -0.8610    4.6078 C.3       1 <0>         0.0000
     13 O1         -5.2851    0.4350    4.6523 O.3       1 <0>         0.0000
     14 O2          1.0487   -0.3046    7.4963 O.3       1 <0>         0.0000
     15 O3          1.2197   -1.8849    5.4329 O.3       1 <0>         0.0000
     16 H1         -2.6008    1.7154    5.5469 H         1 <0>         0.0000
     17 H2         -0.9850    1.5200    7.4038 H         1 <0>         0.0000
     18 H3         -0.6471   -1.4966    3.4900 H         1 <0>         0.0000
     19 H4         -6.3828   -1.8955    3.7972 H         1 <0>         0.0000
     20 H5         -5.2144   -2.9626    4.6111 H         1 <0>         0.0000
     21 H6         -6.2883   -1.9350    5.5694 H         1 <0>         0.0000
     22 H7          1.8218    0.2391    9.2749 H         1 <0>         0.0000
     23 H8          0.0508    0.4407    9.1750 H         1 <0>         0.0000
     24 H9          1.1344    1.6018    8.3485 H         1 <0>         0.0000
     25 H10         2.2171   -3.3947    4.5485 H         1 <0>         0.0000
     26 H11         1.5462   -2.2096    3.3942 H         1 <0>         0.0000
     27 H12         0.4672   -3.3923    4.1957 H         1 <0>         0.0000
     28 H13        -3.2442    1.1796    3.2866 H         1 <0>         0.0000
     29 H14        -2.2314    0.1317    2.2978 H         1 <0>         0.0000
     30 H15        -3.3395   -1.8824    3.2650 H         1 <0>         0.0000
     31 H16        -4.4895   -0.8026    2.4702 H         1 <0>         0.0000
     32 H17        -3.9827   -0.9624    5.4715 H         1 <0>         0.0000
     33 H18        -5.7850    0.4944    5.4810 H         1 <0>         0.0000
@<TRIPOS>BOND
     1    1    2 ar
     2    1    4 ar
     3    1   16 1
     4    2    5 ar
     5    2   17 1
     6    3    4 ar
     7    3    6 ar
     8    3   18 1
     9    4   10 1
    10    5    6 ar
    11    5   14 1
    12    6   15 1
    13    7   12 1
    14    7   19 1
    15    7   20 1
    16    7   21 1
    17    8   14 1
    18    8   22 1
    19    8   23 1
    20    8   24 1
    21    9   15 1
    22    9   25 1
    23    9   26 1
    24    9   27 1
    25   10   11 1
    26   10   28 1
    27   10   29 1
    28   11   12 1
    29   11   30 1
    30   11   31 1
    31   12   13 1
    32   12   32 1
    33   13   33 1
