@<TRIPOS>MOLECULE
*****
   21    22     0     0     0
SMALL
NO_CHARGES

@<TRIPOS>ATOM
      1 C1         -0.7371   -1.1276    1.5894 C.ar      1 <0>         0.0000
      2 C2         -0.5111   -1.7049    2.8341 C.ar      1 <0>         0.0000
      3 C3          1.4764   -0.2596    1.6481 C.ar      1 <0>         0.0000
      4 C4          0.2705   -0.3897    0.9783 C.ar      1 <0>         0.0000
      5 C5          0.7299   -1.5161    3.4206 C.ar      1 <0>         0.0000
      6 C6          0.6610   -1.2850    5.9227 C.2       1 <0>         0.0000
      7 C7          0.8054   -3.6258    4.9002 C.3       1 <0>         0.0000
      8 C8          2.1871   -3.0570    4.8846 C.3       1 <0>         0.0000
      9 C9          0.9938   -2.1247    4.7569 C.3       1 <0>         0.0000
     10 N1          1.7330   -0.8057    2.8578 N.ar      1 <0>         0.0000
     11 O1         -0.4227   -1.2655    6.4871 O.2       1 <0>         0.0000
     12 O2          1.7251   -0.5286    6.2872 O.3       1 <0>         0.0000
     13 F1          0.0818    0.1743   -0.2199 F         1 <0>         0.0000
     14 H1         -1.6955   -1.2540    1.0951 H         1 <0>         0.0000
     15 H2         -1.2897   -2.2830    3.3202 H         1 <0>         0.0000
     16 H3          2.2937    0.3062    1.2132 H         1 <0>         0.0000
     17 H4          0.4878   -4.1989    4.0361 H         1 <0>         0.0000
     18 H5          0.4306   -4.0109    5.8416 H         1 <0>         0.0000
     19 H6          2.7423   -3.0589    5.8157 H         1 <0>         0.0000
     20 H7          2.7992   -3.2469    4.0105 H         1 <0>         0.0000
     21 H8          1.5229    0.0393    7.0611 H         1 <0>         0.0000
@<TRIPOS>BOND
     1    1    2 ar
     2    1    4 ar
     3    1   14 1
     4    2    5 ar
     5    2   15 1
     6    3    4 ar
     7    3   10 ar
     8    3   16 1
     9    4   13 1
    10    5    9 1
    11    5   10 ar
    12    6    9 1
    13    6   11 2
    14    6   12 1
    15    7    8 1
    16    7    9 1
    17    7   17 1
    18    7   18 1
    19    8    9 1
    20    8   19 1
    21    8   20 1
    22   12   21 1
