@<TRIPOS>MOLECULE
*****
   30    31     0     0     0
SMALL
NO_CHARGES

@<TRIPOS>ATOM
      1 C1          0.2700   -3.4325    1.0799 C.ar      1 <0>         0.0000
      2 C2          3.0016   -3.1367   -1.4524 C.ar      1 <0>         0.0000
      3 C3         -0.2810   -2.1664    1.0168 C.ar      1 <0>         0.0000
      4 C4          3.5645   -4.3906   -1.4059 C.ar      1 <0>         0.0000
      5 C5          1.2967   -1.5008   -0.6749 C.ar      1 <0>         0.0000
      6 C6          1.9632   -5.0824    0.2894 C.ar      1 <0>         0.0000
      7 C7          1.8867   -2.7880   -0.6337 C.ar      1 <0>         0.0000
      8 C8          1.3680   -3.7856    0.2540 C.ar      1 <0>         0.0000
      9 C9          0.2151   -1.1695    0.1314 C.ar      1 <0>         0.0000
     10 C10         3.0380   -5.3763   -0.5250 C.ar      1 <0>         0.0000
     11 C11         0.6355    1.3434    0.3684 C.2       1 <0>         0.0000
     12 C12        -1.1004    0.4409   -1.2807 C.3       1 <0>         0.0000
     13 C13         3.2122   -7.6102    0.2986 C.3       1 <0>         0.0000
     14 C14        -0.4232    0.1964    0.0800 C.3       1 <0>         0.0000
     15 O1          1.4826    1.5308   -0.5500 O.co2     1 <0>         0.0000
     16 O2          0.4961    1.9332    1.4698 O.co2     1 <0>         0.0000
     17 O3          3.6882   -6.5967   -0.5695 O.3       1 <0>         0.0000
     18 H1         -0.1332   -4.1725    1.7701 H         1 <0>         0.0000
     19 H2          3.4101   -2.3829   -2.1217 H         1 <0>         0.0000
     20 H3         -1.1176   -1.9116    1.6649 H         1 <0>         0.0000
     21 H4          4.4155   -4.6575   -2.0270 H         1 <0>         0.0000
     22 H5          1.7144   -0.7272   -1.3143 H         1 <0>         0.0000
     23 H6          1.5498   -5.8180    0.9726 H         1 <0>         0.0000
     24 H7         -0.3442    0.4755   -2.0696 H         1 <0>         0.0000
     25 H8         -1.8300   -0.3456   -1.5195 H         1 <0>         0.0000
     26 H9         -1.6197    1.4070   -1.2760 H         1 <0>         0.0000
     27 H10         3.8446   -8.4838    0.1239 H         1 <0>         0.0000
     28 H11         2.1670   -7.8704    0.0816 H         1 <0>         0.0000
     29 H12         3.2919   -7.3099    1.3523 H         1 <0>         0.0000
     30 H13        -1.1785    0.2530    0.8703 H         1 <0>         0.0000
@<TRIPOS>BOND
     1    1    3 ar
     2    1    8 ar
     3    1   18 1
     4    2    4 ar
     5    2    7 ar
     6    2   19 1
     7    3    9 ar
     8    3   20 1
     9    4   10 ar
    10    4   21 1
    11    5    7 ar
    12    5    9 ar
    13    5   22 1
    14    6    8 ar
    15    6   10 ar
    16    6   23 1
    17    7    8 ar
    18    9   14 1
    19   10   17 1
    20   11   14 1
    21   11   15 1
    22   11   16 2
    23   12   14 1
    24   12   24 1
    25   12   25 1
    26   12   26 1
    27   13   17 1
    28   13   27 1
    29   13   28 1
    30   13   29 1
    31   14   30 1
