@<TRIPOS>MOLECULE
*****
   39    39     0     0     0
SMALL
NO_CHARGES

@<TRIPOS>ATOM
      1 C1          9.8746   -1.3554   -1.2415 C.2       1 <0>         0.0000
      2 C2          8.1423   -1.1793    0.4045 C.2       1 <0>         0.0000
      3 C3         11.5516   -2.3254   -2.7253 C.2       1 <0>         0.0000
      4 C4          2.3307   -3.3039   -2.6438 C.3       1 <0>         0.0000
      5 C5         10.6426   -0.0806   -3.1748 C.3       1 <0>         0.0000
      6 C6         12.8667   -4.2904   -2.2096 C.3       1 <0>         0.0000
      7 C7         12.5947   -2.5637   -0.4621 C.3       1 <0>         0.0000
      8 C8          3.6153   -3.3186   -1.8083 C.3       1 <0>         0.0000
      9 C9          3.9081   -1.9689   -1.1418 C.3       1 <0>         0.0000
     10 C10         5.1910   -1.9924   -0.3003 C.3       1 <0>         0.0000
     11 C11         5.4719   -0.6402    0.3439 C.3       1 <0>         0.0000
     12 N1          9.6539   -2.4752   -0.5943 N.2       1 <0>         0.0000
     13 N2          8.6714   -2.3567    0.3562 N.2       1 <0>         0.0000
     14 N3         10.8325   -1.1763   -2.2134 N.am      1 <0>         0.0000
     15 N4         12.3108   -2.9968   -1.8243 N.am      1 <0>         0.0000
     16 O1         11.4845   -2.5880   -3.9227 O.2       1 <0>         0.0000
     17 O2          6.5572   -1.8972    2.4860 O.2       1 <0>         0.0000
     18 S1          8.8333   -0.0179   -0.7264 S.3       1 <0>         0.0000
     19 S2          6.8343   -0.7076    1.6051 S.o       1 <0>         0.0000
     20 H1          1.4596   -3.0578   -2.0257 H         1 <0>         0.0000
     21 H2          2.3886   -2.5591   -3.4462 H         1 <0>         0.0000
     22 H3          2.1457   -4.2788   -3.1071 H         1 <0>         0.0000
     23 H4         10.6439    0.8740   -2.6404 H         1 <0>         0.0000
     24 H5          9.7091   -0.1895   -3.7366 H         1 <0>         0.0000
     25 H6         11.4726   -0.0932   -3.8782 H         1 <0>         0.0000
     26 H7         13.9622   -4.2465   -2.2252 H         1 <0>         0.0000
     27 H8         12.5075   -4.5559   -3.2018 H         1 <0>         0.0000
     28 H9         12.5532   -5.0527   -1.4875 H         1 <0>         0.0000
     29 H10        11.9871   -3.1155    0.2616 H         1 <0>         0.0000
     30 H11        12.3971   -1.4983   -0.3510 H         1 <0>         0.0000
     31 H12        13.6558   -2.7404   -0.2563 H         1 <0>         0.0000
     32 H13         4.4648   -3.5999   -2.4439 H         1 <0>         0.0000
     33 H14         3.5431   -4.0932   -1.0344 H         1 <0>         0.0000
     34 H15         3.0581   -1.6887   -0.5048 H         1 <0>         0.0000
     35 H16         3.9832   -1.1915   -1.9149 H         1 <0>         0.0000
     36 H17         6.0398   -2.2868   -0.9266 H         1 <0>         0.0000
     37 H18         5.1079   -2.7458    0.4900 H         1 <0>         0.0000
     38 H19         4.6126   -0.2840    0.9226 H         1 <0>         0.0000
     39 H20         5.7463    0.1358   -0.3795 H         1 <0>         0.0000
@<TRIPOS>BOND
     1    1   12 2
     2    1   14 1
     3    1   18 1
     4    2   13 2
     5    2   18 1
     6    2   19 1
     7    3   14 am
     8    3   15 am
     9    3   16 2
    10    4    8 1
    11    4   20 1
    12    4   21 1
    13    4   22 1
    14    5   14 1
    15    5   23 1
    16    5   24 1
    17    5   25 1
    18    6   15 1
    19    6   26 1
    20    6   27 1
    21    6   28 1
    22    7   15 1
    23    7   29 1
    24    7   30 1
    25    7   31 1
    26    8    9 1
    27    8   32 1
    28    8   33 1
    29    9   10 1
    30    9   34 1
    31    9   35 1
    32   10   11 1
    33   10   36 1
    34   10   37 1
    35   11   19 1
    36   11   38 1
    37   11   39 1
    38   12   13 1
    39   17   19 2
