@<TRIPOS>MOLECULE
*****
   39    39     0     0     0
SMALL
NO_CHARGES

@<TRIPOS>ATOM
      1 C1          8.5467   -0.4555    0.0090 C.2       1 <0>         0.0000
      2 C2          6.3464   -0.8575    0.8090 C.2       1 <0>         0.0000
      3 C3         10.5767   -0.6285   -1.3381 C.2       1 <0>         0.0000
      4 C4          6.1019   -6.7956    4.3582 C.3       1 <0>         0.0000
      5 C5         10.1241    1.4053   -0.0270 C.3       1 <0>         0.0000
      6 C6         11.4109   -2.6794   -2.3172 C.3       1 <0>         0.0000
      7 C7         10.6411   -2.7236    0.0303 C.3       1 <0>         0.0000
      8 C8          5.7326   -5.8482    3.2117 C.3       1 <0>         0.0000
      9 C9          5.6185   -4.3863    3.6603 C.3       1 <0>         0.0000
     10 C10         5.2610   -3.4381    2.5069 C.3       1 <0>         0.0000
     11 C11         5.1474   -1.9912    2.9790 C.3       1 <0>         0.0000
     12 N1          7.9999   -1.5321   -0.5185 N.2       1 <0>         0.0000
     13 N2          6.7301   -1.7488   -0.0470 N.2       1 <0>         0.0000
     14 N3          9.8220   -0.0139   -0.2670 N.am      1 <0>         0.0000
     15 N4         10.8650   -1.9458   -1.1801 N.am      1 <0>         0.0000
     16 O1         10.9583    0.0630   -2.2774 O.2       1 <0>         0.0000
     17 O2          4.6562    0.5673    2.2548 O.2       1 <0>         0.0000
     18 S1          7.5096    0.4158    1.1417 S.3       1 <0>         0.0000
     19 S2          4.7225   -0.8092    1.6174 S.o       1 <0>         0.0000
     20 H1          7.0668   -6.5233    4.8013 H         1 <0>         0.0000
     21 H2          5.3507   -6.7634    5.1557 H         1 <0>         0.0000
     22 H3          6.1750   -7.8316    4.0110 H         1 <0>         0.0000
     23 H4         10.0094    1.6247    1.0385 H         1 <0>         0.0000
     24 H5          9.4733    2.0633   -0.6117 H         1 <0>         0.0000
     25 H6         11.1559    1.5908   -0.3180 H         1 <0>         0.0000
     26 H7         12.4252   -3.0319   -2.0944 H         1 <0>         0.0000
     27 H8         11.4455   -2.0240   -3.1852 H         1 <0>         0.0000
     28 H9         10.7752   -3.5453   -2.5344 H         1 <0>         0.0000
     29 H10         9.7601   -3.3653   -0.0714 H         1 <0>         0.0000
     30 H11        10.5023   -2.0650    0.8867 H         1 <0>         0.0000
     31 H12        11.5244   -3.3453    0.2130 H         1 <0>         0.0000
     32 H13         4.7810   -6.1645    2.7654 H         1 <0>         0.0000
     33 H14         6.4838   -5.9233    2.4149 H         1 <0>         0.0000
     34 H15         6.5690   -4.0694    4.1105 H         1 <0>         0.0000
     35 H16         4.8620   -4.3062    4.4525 H         1 <0>         0.0000
     36 H17         4.3114   -3.7517    2.0559 H         1 <0>         0.0000
     37 H18         6.0187   -3.5153    1.7205 H         1 <0>         0.0000
     38 H19         6.0652   -1.6151    3.4415 H         1 <0>         0.0000
     39 H20         4.3241   -1.8522    3.6880 H         1 <0>         0.0000
@<TRIPOS>BOND
     1    1   12 2
     2    1   14 1
     3    1   18 1
     4    2   13 2
     5    2   18 1
     6    2   19 1
     7    3   14 am
     8    3   15 am
     9    3   16 2
    10    4    8 1
    11    4   20 1
    12    4   21 1
    13    4   22 1
    14    5   14 1
    15    5   23 1
    16    5   24 1
    17    5   25 1
    18    6   15 1
    19    6   26 1
    20    6   27 1
    21    6   28 1
    22    7   15 1
    23    7   29 1
    24    7   30 1
    25    7   31 1
    26    8    9 1
    27    8   32 1
    28    8   33 1
    29    9   10 1
    30    9   34 1
    31    9   35 1
    32   10   11 1
    33   10   36 1
    34   10   37 1
    35   11   19 1
    36   11   38 1
    37   11   39 1
    38   12   13 1
    39   17   19 2
