@<TRIPOS>MOLECULE
*****
   21    22     0     0     0
SMALL
NO_CHARGES

@<TRIPOS>ATOM
      1 C1         -3.3958   -2.6824   -0.1876 C.ar      1 <0>         0.0000
      2 C2         -1.6051   -1.7070    1.0878 C.ar      1 <0>         0.0000
      3 C3         -2.9021   -2.0097   -1.2938 C.ar      1 <0>         0.0000
      4 C4         -2.7291   -2.5228    1.0221 C.ar      1 <0>         0.0000
      5 C5         -1.1915   -1.0781   -0.0755 C.ar      1 <0>         0.0000
      6 C6         -0.1180    1.2100   -0.5791 C.3       1 <0>         0.0000
      7 C7         -0.0223    1.0013    0.8999 C.3       1 <0>         0.0000
      8 C8          0.0107   -0.1991   -0.0290 C.3       1 <0>         0.0000
      9 C9          1.3241   -0.9072   -0.2135 C.3       1 <0>         0.0000
     10 N1         -1.8133   -1.2088   -1.2688 N.ar      1 <0>         0.0000
     11 Cl1        -3.2920   -3.3316    2.4318 Cl        1 <0>         0.0000
     12 H1         -4.2754   -3.3107   -0.2765 H         1 <0>         0.0000
     13 H2         -1.0665   -1.5667    2.0202 H         1 <0>         0.0000
     14 H3         -3.3850   -2.1014   -2.2609 H         1 <0>         0.0000
     15 H4         -1.0733    1.5287   -0.9802 H         1 <0>         0.0000
     16 H5          0.7356    1.6489   -1.0826 H         1 <0>         0.0000
     17 H6          0.8957    1.3007    1.3922 H         1 <0>         0.0000
     18 H7         -0.9132    1.1786    1.4915 H         1 <0>         0.0000
     19 H8          2.1616   -0.2001   -0.1677 H         1 <0>         0.0000
     20 H9          1.3637   -1.4145   -1.1854 H         1 <0>         0.0000
     21 H10         1.4766   -1.6621    0.5678 H         1 <0>         0.0000
@<TRIPOS>BOND
     1    1    3 ar
     2    1    4 ar
     3    1   12 1
     4    2    4 ar
     5    2    5 ar
     6    2   13 1
     7    3   10 ar
     8    3   14 1
     9    4   11 1
    10    5    8 1
    11    5   10 ar
    12    6    7 1
    13    6    8 1
    14    6   15 1
    15    6   16 1
    16    7    8 1
    17    7   17 1
    18    7   18 1
    19    8    9 1
    20    9   19 1
    21    9   20 1
    22    9   21 1
