@<TRIPOS>MOLECULE
*****
   28    29     0     0     0
SMALL
NO_CHARGES

@<TRIPOS>ATOM
      1 C1          6.7189   -0.4086    7.8194 C.ar      1 <0>         0.0000
      2 C2          5.5730    0.0143    8.4929 C.ar      1 <0>         0.0000
      3 C3          6.6034   -1.1193    6.6247 C.ar      1 <0>         0.0000
      4 C4          4.3115   -0.2736    7.9718 C.ar      1 <0>         0.0000
      5 C5          5.3420   -1.4073    6.1036 C.ar      1 <0>         0.0000
      6 C6          4.1960   -0.9844    6.7771 C.ar      1 <0>         0.0000
      7 C7          9.0996   -3.9060    2.0324 C.2       1 <0>         0.0000
      8 C8          6.9661   -3.6445    2.4044 C.2       1 <0>         0.0000
      9 C9          5.2439   -2.1505    4.8552 C.2       1 <0>         0.0000
     10 C10         8.6629   -4.6346    0.7999 C.3       1 <0>         0.0000
     11 C11         1.8408   -0.7835    7.0382 C.3       1 <0>         0.0000
     12 N1          8.2369   -3.3994    2.8535 N.2       1 <0>         0.0000
     13 N2          5.9204   -3.2448    3.0424 N.2       1 <0>         0.0000
     14 N3          6.2887   -2.5626    4.1964 N.2       1 <0>         0.0000
     15 O1         10.4258   -3.8206    2.2136 O.3       1 <0>         0.0000
     16 O2          2.9548   -1.2544    6.2829 O.3       1 <0>         0.0000
     17 S1          6.8530   -4.5389    0.9038 S.3       1 <0>         0.0000
     18 H1          7.7011   -0.1842    8.2255 H         1 <0>         0.0000
     19 H2          5.6636    0.5672    9.4232 H         1 <0>         0.0000
     20 H3          7.5033   -1.4435    6.1082 H         1 <0>         0.0000
     21 H4          3.4228    0.0588    8.5014 H         1 <0>         0.0000
     22 H5          4.2238   -2.3658    4.4633 H         1 <0>         0.0000
     23 H6          9.0288   -4.1267   -0.0950 H         1 <0>         0.0000
     24 H7          9.0005   -5.6727    0.8294 H         1 <0>         0.0000
     25 H8          0.9128   -1.0652    6.5345 H         1 <0>         0.0000
     26 H9          1.8992    0.3035    7.1363 H         1 <0>         0.0000
     27 H10         1.8664   -1.2388    8.0311 H         1 <0>         0.0000
     28 H11        10.6525   -3.3365    3.0307 H         1 <0>         0.0000
@<TRIPOS>BOND
     1    1    2 ar
     2    1    3 ar
     3    1   18 1
     4    2    4 ar
     5    2   19 1
     6    3    5 ar
     7    3   20 1
     8    4    6 ar
     9    4   21 1
    10    5    6 ar
    11    5    9 1
    12    6   16 1
    13    7   10 1
    14    7   12 2
    15    7   15 1
    16    8   12 1
    17    8   13 2
    18    8   17 1
    19    9   14 2
    20    9   22 1
    21   10   17 1
    22   10   23 1
    23   10   24 1
    24   11   16 1
    25   11   25 1
    26   11   26 1
    27   11   27 1
    28   13   14 1
    29   15   28 1
