@<TRIPOS>MOLECULE
*****
   49    49     0     0     0
SMALL
NO_CHARGES

@<TRIPOS>ATOM
      1 C1          1.8821    0.2230    0.3430 C.2       1 <0>         0.0000
      2 C2         -0.6541   -0.6900   -1.8083 C.2       1 <0>         0.0000
      3 C3         -0.4384    1.0437    2.2362 C.3       1 <0>         0.0000
      4 C4          0.2726    2.2211    0.3860 C.3       1 <0>         0.0000
      5 C5         -0.4905    0.0495    1.0800 C.3       1 <0>         0.0000
      6 C6          0.4482    0.7096    0.0252 C.3       1 <0>         0.0000
      7 C7          3.7334   -2.0829    0.9737 C.3       1 <0>         0.0000
      8 C8          3.5059   -2.4436   -1.5116 C.3       1 <0>         0.0000
      9 C9          4.6476   -0.3591   -0.6722 C.3       1 <0>         0.0000
     10 C10        -2.6980   -1.2193   -3.8904 C.3       1 <0>         0.0000
     11 C11        -0.6770   -1.7282   -5.3064 C.3       1 <0>         0.0000
     12 C12        -1.2653   -3.2711   -3.3952 C.3       1 <0>         0.0000
     13 C13         3.5714   -1.4081   -0.3891 C.3       1 <0>         0.0000
     14 C14        -1.3001   -1.8350   -3.9149 C.3       1 <0>         0.0000
     15 N1          0.1037    0.4193   -1.3948 N.am      1 <0>         0.0000
     16 O1          2.5303    0.6894    1.2577 O.2       1 <0>         0.0000
     17 O2         -1.4489   -1.2842   -1.1138 O.2       1 <0>         0.0000
     18 O3          1.9112    2.1641   -1.8423 O.2       1 <0>         0.0000
     19 O4          0.0678    1.8301   -3.5577 O.2       1 <0>         0.0000
     20 O5         -0.5335    2.2958    1.5710 O.3       1 <0>         0.0000
     21 O6          1.9657    0.2100   -3.2922 O.3       1 <0>         0.0000
     22 O7          2.2331   -0.7698   -0.4711 O.3       1 <0>         0.0000
     23 O8         -0.3762   -0.9895   -3.0986 O.3       1 <0>         0.0000
     24 F1         -0.0589   -1.2187    1.4546 F         1 <0>         0.0000
     25 S1          1.0104    1.3089   -2.5862 S.o2      1 <0>         0.0000
     26 H1         -1.2938    0.9432    2.9071 H         1 <0>         0.0000
     27 H2          0.4966    0.9406    2.7998 H         1 <0>         0.0000
     28 H3          1.2458    2.6813    0.5567 H         1 <0>         0.0000
     29 H4         -0.2557    2.7567   -0.4034 H         1 <0>         0.0000
     30 H5         -1.4999   -0.0398    0.6905 H         1 <0>         0.0000
     31 H6          3.7949   -1.3489    1.7775 H         1 <0>         0.0000
     32 H7          2.8906   -2.7524    1.1696 H         1 <0>         0.0000
     33 H8          4.6527   -2.6774    0.9713 H         1 <0>         0.0000
     34 H9          3.3638   -1.9489   -2.4760 H         1 <0>         0.0000
     35 H10         2.6789   -3.1401   -1.3440 H         1 <0>         0.0000
     36 H11         4.4388   -3.0136   -1.5469 H         1 <0>         0.0000
     37 H12         4.4287    0.1640   -1.6072 H         1 <0>         0.0000
     38 H13         4.7154    0.3719    0.1341 H         1 <0>         0.0000
     39 H14         5.6165   -0.8589   -0.7723 H         1 <0>         0.0000
     40 H15        -3.1558   -1.3012   -2.9040 H         1 <0>         0.0000
     41 H16        -2.6549   -0.1658   -4.1816 H         1 <0>         0.0000
     42 H17        -3.3314   -1.7487   -4.6087 H         1 <0>         0.0000
     43 H18         0.3370   -2.1429   -5.3139 H         1 <0>         0.0000
     44 H19        -0.6384   -0.6857   -5.6346 H         1 <0>         0.0000
     45 H20        -1.2747   -2.2968   -6.0239 H         1 <0>         0.0000
     46 H21        -0.2357   -3.6404   -3.3593 H         1 <0>         0.0000
     47 H22        -1.7012   -3.3440   -2.3990 H         1 <0>         0.0000
     48 H23        -1.8329   -3.9116   -4.0779 H         1 <0>         0.0000
     49 H24         1.3706   -0.4780   -3.6659 H         1 <0>         0.0000
@<TRIPOS>BOND
     1    1    6 1
     2    1   16 2
     3    1   22 1
     4    2   15 am
     5    2   17 2
     6    2   23 1
     7    3    5 1
     8    3   20 1
     9    3   26 1
    10    3   27 1
    11    4    6 1
    12    4   20 1
    13    4   28 1
    14    4   29 1
    15    5    6 1
    16    5   24 1
    17    5   30 1
    18    6   15 1
    19    7   13 1
    20    7   31 1
    21    7   32 1
    22    7   33 1
    23    8   13 1
    24    8   34 1
    25    8   35 1
    26    8   36 1
    27    9   13 1
    28    9   37 1
    29    9   38 1
    30    9   39 1
    31   10   14 1
    32   10   40 1
    33   10   41 1
    34   10   42 1
    35   11   14 1
    36   11   43 1
    37   11   44 1
    38   11   45 1
    39   12   14 1
    40   12   46 1
    41   12   47 1
    42   12   48 1
    43   13   22 1
    44   14   23 1
    45   15   25 1
    46   18   25 2
    47   19   25 2
    48   21   25 1
    49   21   49 1
