@<TRIPOS>MOLECULE
*****
    8     7     0     0     0
SMALL
NO_CHARGES

@<TRIPOS>ATOM
      1 C1          0.3958    0.3541    0.4055 C.3       1 <0>         0.0000
      2 C2         -0.2781    0.3240   -1.0051 C.3       1 <0>         0.0000
      3 F1          0.5402   -0.9079    0.8490 F         1 <0>         0.0000
      4 F2          1.6113    0.9195    0.3203 F         1 <0>         0.0000
      5 F3         -1.4940   -0.2506   -0.8787 F         1 <0>         0.0000
      6 Cl1        -0.4574    1.9579   -1.6692 Cl        1 <0>         0.0000
      7 Br1        -0.6907    1.3421    1.7061 Br        1 <0>         0.0000
      8 Br2         0.8097   -0.7961   -2.2065 Br        1 <0>         0.0000
@<TRIPOS>BOND
     1    1    2 1
     2    1    3 1
     3    1    4 1
     4    1    7 1
     5    2    5 1
     6    2    6 1
     7    2    8 1
