@<TRIPOS>MOLECULE
*****
   46    50     0     0     0
SMALL
NO_CHARGES

@<TRIPOS>ATOM
      1 C1         -3.3577   -1.8274    4.2954 C.ar      1 <0>         0.0000
      2 C2          2.7848    0.4284    0.2435 C.ar      1 <0>         0.0000
      3 C3         -3.1759   -0.7454    3.4314 C.ar      1 <0>         0.0000
      4 C4          1.6024    0.9193    0.7949 C.ar      1 <0>         0.0000
      5 C5         -3.0163   -1.7229    5.6473 C.ar      1 <0>         0.0000
      6 C6          1.3855   -1.1878    1.9714 C.ar      1 <0>         0.0000
      7 C7          5.6877   -1.6734    0.6383 C.ar      1 <0>         0.0000
      8 C8         -2.2892    0.5679    5.2570 C.ar      1 <0>         0.0000
      9 C9          4.7876   -1.0212   -1.4842 C.ar      1 <0>         0.0000
     10 C10         6.9815   -1.6779   -1.4089 C.ar      1 <0>         0.0000
     11 C11         3.2981   -0.8493    0.5264 C.ar      1 <0>         0.0000
     12 C12         2.5697   -1.6948    1.4062 C.ar      1 <0>         0.0000
     13 C13         4.5937   -1.2091   -0.1054 C.ar      1 <0>         0.0000
     14 C14        -2.6367    0.4621    3.9026 C.ar      1 <0>         0.0000
     15 C15         0.9011    0.0884    1.6807 C.ar      1 <0>         0.0000
     16 C16         6.8742   -1.8951   -0.0371 C.ar      1 <0>         0.0000
     17 C17        -2.4895   -0.5166    6.1109 C.ar      1 <0>         0.0000
     18 C18         2.9205   -3.0784    1.7487 C.2       1 <0>         0.0000
     19 C19        -1.0788    1.5706    2.1442 C.2       1 <0>         0.0000
     20 C20        -3.5425    2.2341    2.2301 C.3       1 <0>         0.0000
     21 C21        -2.8468    2.9909    3.3256 C.3       1 <0>         0.0000
     22 C22        -2.3659    1.5959    2.9596 C.3       1 <0>         0.0000
     23 N1          2.8156   -4.9860    2.6986 N.2       1 <0>         0.0000
     24 N2          5.9413   -1.2449   -2.1310 N.ar      1 <0>         0.0000
     25 N3          2.2466   -3.7741    2.6948 N.2       1 <0>         0.0000
     26 N4          3.8804   -3.8339    1.1747 N.2       1 <0>         0.0000
     27 N5          3.7929   -5.0240    1.7887 N.2       1 <0>         0.0000
     28 N6         -0.3076    0.4617    2.3243 N.am      1 <0>         0.0000
     29 O1         -0.8039    2.5045    1.3852 O.2       1 <0>         0.0000
     30 F1          7.9722   -2.3263    0.6468 F         1 <0>         0.0000
     31 Cl1        -2.0573   -0.3620    7.8098 Cl        1 <0>         0.0000
     32 H1         -3.7567   -2.7648    3.9178 H         1 <0>         0.0000
     33 H2          3.3542    1.0766   -0.4179 H         1 <0>         0.0000
     34 H3         -3.4358   -0.8360    2.3801 H         1 <0>         0.0000
     35 H4          1.2362    1.9087    0.5591 H         1 <0>         0.0000
     36 H5         -3.1464   -2.5606    6.3247 H         1 <0>         0.0000
     37 H6          0.8406   -1.8482    2.6414 H         1 <0>         0.0000
     38 H7          5.6136   -1.8636    1.7024 H         1 <0>         0.0000
     39 H8         -1.8570    1.4887    5.6361 H         1 <0>         0.0000
     40 H9          3.9538   -0.6868   -2.0990 H         1 <0>         0.0000
     41 H10         7.9233   -1.8630   -1.9232 H         1 <0>         0.0000
     42 H11        -4.5244    1.8185    2.4361 H         1 <0>         0.0000
     43 H12        -3.3565    2.5496    1.2089 H         1 <0>         0.0000
     44 H13        -2.1990    3.8093    3.0307 H         1 <0>         0.0000
     45 H14        -3.3587    3.0992    4.2770 H         1 <0>         0.0000
     46 H15        -0.6615   -0.2330    2.9702 H         1 <0>         0.0000
@<TRIPOS>BOND
     1    1    3 ar
     2    1    5 ar
     3    1   32 1
     4    2    4 ar
     5    2   11 ar
     6    2   33 1
     7    3   14 ar
     8    3   34 1
     9    4   15 ar
    10    4   35 1
    11    5   17 ar
    12    5   36 1
    13    6   12 ar
    14    6   15 ar
    15    6   37 1
    16    7   13 ar
    17    7   16 ar
    18    7   38 1
    19    8   14 ar
    20    8   17 ar
    21    8   39 1
    22    9   13 ar
    23    9   24 ar
    24    9   40 1
    25   10   16 ar
    26   10   24 ar
    27   10   41 1
    28   11   12 ar
    29   11   13 1
    30   12   18 1
    31   14   22 1
    32   15   28 1
    33   16   30 1
    34   17   31 1
    35   18   25 2
    36   18   26 1
    37   19   22 1
    38   19   28 am
    39   19   29 2
    40   20   21 1
    41   20   22 1
    42   20   42 1
    43   20   43 1
    44   21   22 1
    45   21   44 1
    46   21   45 1
    47   23   25 1
    48   23   27 1
    49   26   27 2
    50   28   46 1
