@<TRIPOS>MOLECULE
*****
   40    42     0     0     0
SMALL
NO_CHARGES

@<TRIPOS>ATOM
      1 C1          2.3905   -2.1860   -1.7184 C.ar      1 <0>         0.0000
      2 C2          0.3552   -3.2226   -0.9620 C.ar      1 <0>         0.0000
      3 C3          2.5030   -3.1307   -2.7388 C.ar      1 <0>         0.0000
      4 C4          0.4509   -4.1750   -1.9784 C.ar      1 <0>         0.0000
      5 C5          1.3797   -4.9602    2.8299 C.2       1 <0>         0.0000
      6 C6          0.4428   -4.0177    2.4695 C.2       1 <0>         0.0000
      7 C7          2.4913   -3.2476    2.1537 C.2       1 <0>         0.0000
      8 C8          1.3146   -2.2123   -0.8208 C.ar      1 <0>         0.0000
      9 C9          1.5256   -4.1192   -2.8649 C.ar      1 <0>         0.0000
     10 C10        -1.0548   -0.1702   -0.7823 C.3       1 <0>         0.0000
     11 C11         0.0418    0.3149   -1.6940 C.3       1 <0>         0.0000
     12 C12         0.3361    0.0734   -0.2271 C.3       1 <0>         0.0000
     13 C13         2.3676    3.6075    0.7847 C.3       1 <0>         0.0000
     14 C14         0.5806   -1.6707    1.5613 C.3       1 <0>         0.0000
     15 C15         1.7984    2.5113   -0.1149 C.3       1 <0>         0.0000
     16 C16         1.2003   -1.1335    0.2473 C.3       1 <0>         0.0000
     17 N1          2.6532   -4.4708    2.6275 N.2       1 <0>         0.0000
     18 N2          1.1636   -2.9174    2.0349 N.pl3     1 <0>         0.0000
     19 O1          2.5359   -0.6850    0.5169 O.3       1 <0>         0.0000
     20 S1          0.5240    1.5528    0.8141 S.3       1 <0>         0.0000
     21 Cl1         1.6570   -5.3124   -4.1460 Cl        1 <0>         0.0000
     22 H1          3.1516   -1.4222   -1.6088 H         1 <0>         0.0000
     23 H2         -0.4764   -3.3014   -0.2703 H         1 <0>         0.0000
     24 H3          3.3425   -3.1036   -3.4264 H         1 <0>         0.0000
     25 H4         -0.2947   -4.9581   -2.0718 H         1 <0>         0.0000
     26 H5          1.2092   -5.9562    3.2184 H         1 <0>         0.0000
     27 H6         -0.6384   -4.0184    2.4898 H         1 <0>         0.0000
     28 H7          3.2755   -2.5668    1.8570 H         1 <0>         0.0000
     29 H8         -1.8356    0.5261   -0.4960 H         1 <0>         0.0000
     30 H9         -1.3776   -1.1997   -0.8988 H         1 <0>         0.0000
     31 H10         0.4557   -0.3880   -2.4082 H         1 <0>         0.0000
     32 H11         0.0014    1.3428   -2.0368 H         1 <0>         0.0000
     33 H12         1.5812    4.2798    1.1423 H         1 <0>         0.0000
     34 H13         2.8751    3.1851    1.6574 H         1 <0>         0.0000
     35 H14         3.0931    4.2076    0.2258 H         1 <0>         0.0000
     36 H15         0.6847   -0.8930    2.3250 H         1 <0>         0.0000
     37 H16        -0.4889   -1.8382    1.4261 H         1 <0>         0.0000
     38 H17         2.5774    1.8212   -0.4463 H         1 <0>         0.0000
     39 H18         1.3289    2.9473   -1.0005 H         1 <0>         0.0000
     40 H19         2.4424    0.0739    1.1234 H         1 <0>         0.0000
@<TRIPOS>BOND
     1    1    3 ar
     2    1    8 ar
     3    1   22 1
     4    2    4 ar
     5    2    8 ar
     6    2   23 1
     7    3    9 ar
     8    3   24 1
     9    4    9 ar
    10    4   25 1
    11    5    6 2
    12    5   17 1
    13    5   26 1
    14    6   18 1
    15    6   27 1
    16    7   17 2
    17    7   18 1
    18    7   28 1
    19    8   16 1
    20    9   21 1
    21   10   11 1
    22   10   12 1
    23   10   29 1
    24   10   30 1
    25   11   12 1
    26   11   31 1
    27   11   32 1
    28   12   16 1
    29   12   20 1
    30   13   15 1
    31   13   33 1
    32   13   34 1
    33   13   35 1
    34   14   16 1
    35   14   18 1
    36   14   36 1
    37   14   37 1
    38   15   20 1
    39   15   38 1
    40   15   39 1
    41   16   19 1
    42   19   40 1
