@<TRIPOS>MOLECULE
*****
   67    69     0     0     0
SMALL
NO_CHARGES

@<TRIPOS>ATOM
      1 C1        -11.6516   -1.8783   -2.1360 C.1       1 <0>         0.0000
      2 C2        -10.8354   -3.4513   -0.4596 C.ar      1 <0>         0.0000
      3 C3         -9.8189   -3.9855    0.3297 C.ar      1 <0>         0.0000
      4 C4         -8.2641   -2.3704   -0.5981 C.ar      1 <0>         0.0000
      5 C5        -10.5735   -2.3843   -1.3325 C.ar      1 <0>         0.0000
      6 C6         -9.2723   -1.8432   -1.3958 C.ar      1 <0>         0.0000
      7 C7         -8.5360   -3.4453    0.2513 C.ar      1 <0>         0.0000
      8 C8         -7.5989   -4.0714    2.4665 C.2       1 <0>         0.0000
      9 C9         -6.2494   -4.4310    0.6141 C.2       1 <0>         0.0000
     10 C10         1.7200    0.6452    0.7506 C.2       1 <0>         0.0000
     11 C11         0.1509   -1.0069    1.8907 C.3       1 <0>         0.0000
     12 C12        -0.1947   -0.3456   -0.4262 C.3       1 <0>         0.0000
     13 C13         0.0360   -2.4863    1.5130 C.3       1 <0>         0.0000
     14 C14        -0.3009   -1.8000   -0.8645 C.3       1 <0>         0.0000
     15 C15        -6.2789   -4.6620    2.9684 C.3       1 <0>         0.0000
     16 C16        -6.5538   -6.0323    3.6091 C.3       1 <0>         0.0000
     17 C17        -5.6133   -3.6938    3.9543 C.3       1 <0>         0.0000
     18 C18         4.3119    1.8771    3.0553 C.3       1 <0>         0.0000
     19 C19         2.4928    0.7780    2.0646 C.3       1 <0>         0.0000
     20 C20        -3.1371   -4.3034    1.2272 C.3       1 <0>         0.0000
     21 C21        -1.7803   -4.9345    0.8741 C.3       1 <0>         0.0000
     22 C22        -4.1936   -5.3552    1.6082 C.3       1 <0>         0.0000
     23 C23        -0.9840   -4.1081   -0.1339 C.3       1 <0>         0.0000
     24 C24        -8.9614   -0.6880   -2.3241 C.3       1 <0>         0.0000
     25 N1        -12.5505   -1.4983   -2.7703 N.1       1 <0>         0.0000
     26 N2         -7.4960   -3.9726    1.0749 N.am      1 <0>         0.0000
     27 N3         -5.5233   -4.7802    1.7092 N.pl3     1 <0>         0.0000
     28 N4          0.6300   -0.2352    0.7637 N.am      1 <0>         0.0000
     29 N5         -0.8196   -2.6566    0.2781 N.4       1 <0>         0.0000
     30 O1         -8.5523   -3.7551    3.1440 O.2       1 <0>         0.0000
     31 O2          2.0135    1.2519   -0.2607 O.2       1 <0>         0.0000
     32 O3          3.5513    1.6623    1.8686 O.3       1 <0>         0.0000
     33 F1         -7.6615   -0.3088   -2.2226 F         1 <0>         0.0000
     34 F2         -9.1817   -1.0155   -3.6149 F         1 <0>         0.0000
     35 F3         -9.7157    0.3952   -2.0409 F         1 <0>         0.0000
     36 S1         -5.7777   -4.5464   -0.9762 S.2       1 <0>         0.0000
     37 H1        -11.8384   -3.8614   -0.4100 H         1 <0>         0.0000
     38 H2        -10.0254   -4.8100    1.0032 H         1 <0>         0.0000
     39 H3         -7.2674   -1.9528   -0.6433 H         1 <0>         0.0000
     40 H4         -0.8287   -0.6338    2.2297 H         1 <0>         0.0000
     41 H5          0.8279   -0.9344    2.7407 H         1 <0>         0.0000
     42 H6          0.2686    0.2407   -1.2215 H         1 <0>         0.0000
     43 H7         -1.1967    0.0711   -0.2418 H         1 <0>         0.0000
     44 H8          1.0145   -2.9068    1.2715 H         1 <0>         0.0000
     45 H9         -0.4207   -3.0657    2.3161 H         1 <0>         0.0000
     46 H10        -0.9958   -1.9212   -1.6981 H         1 <0>         0.0000
     47 H11         0.6748   -2.2045   -1.1414 H         1 <0>         0.0000
     48 H12        -5.6339   -6.4697    4.0077 H         1 <0>         0.0000
     49 H13        -6.9851   -6.7254    2.8816 H         1 <0>         0.0000
     50 H14        -7.2589   -5.9074    4.4342 H         1 <0>         0.0000
     51 H15        -4.6675   -4.1083    4.3180 H         1 <0>         0.0000
     52 H16        -6.2716   -3.5372    4.8118 H         1 <0>         0.0000
     53 H17        -5.4217   -2.7247    3.4841 H         1 <0>         0.0000
     54 H18         5.1043    2.5785    2.7927 H         1 <0>         0.0000
     55 H19         4.7611    0.9408    3.4171 H         1 <0>         0.0000
     56 H20         3.6924    2.3111    3.8530 H         1 <0>         0.0000
     57 H21         2.8557   -0.2181    2.3795 H         1 <0>         0.0000
     58 H22         1.8043    1.1356    2.8519 H         1 <0>         0.0000
     59 H23        -3.5359   -3.7748    0.3539 H         1 <0>         0.0000
     60 H24        -3.0424   -3.5806    2.0481 H         1 <0>         0.0000
     61 H25        -1.1894   -5.1490    1.7702 H         1 <0>         0.0000
     62 H26        -1.9419   -5.9007    0.3837 H         1 <0>         0.0000
     63 H27        -3.9494   -5.8239    2.5639 H         1 <0>         0.0000
     64 H28        -4.2101   -6.1380    0.8431 H         1 <0>         0.0000
     65 H29        -1.5085   -4.0845   -1.0920 H         1 <0>         0.0000
     66 H30         0.0218   -4.5019   -0.2969 H         1 <0>         0.0000
     67 H31        -1.7591   -2.3098    0.5078 H         1 <0>         0.0000
@<TRIPOS>BOND
     1    1    5 1
     2    1   25 3
     3    2    3 ar
     4    2    5 ar
     5    2   37 1
     6    3    7 ar
     7    3   38 1
     8    4    6 ar
     9    4    7 ar
    10    4   39 1
    11    5    6 ar
    12    6   24 1
    13    7   26 1
    14    8   15 1
    15    8   26 am
    16    8   30 2
    17    9   26 1
    18    9   27 1
    19    9   36 2
    20   10   19 1
    21   10   28 am
    22   10   31 2
    23   11   13 1
    24   11   28 1
    25   11   40 1
    26   11   41 1
    27   12   14 1
    28   12   28 1
    29   12   42 1
    30   12   43 1
    31   13   29 1
    32   13   44 1
    33   13   45 1
    34   14   29 1
    35   14   46 1
    36   14   47 1
    37   15   16 1
    38   15   17 1
    39   15   27 1
    40   16   48 1
    41   16   49 1
    42   16   50 1
    43   17   51 1
    44   17   52 1
    45   17   53 1
    46   18   32 1
    47   18   54 1
    48   18   55 1
    49   18   56 1
    50   19   32 1
    51   19   57 1
    52   19   58 1
    53   20   21 1
    54   20   22 1
    55   20   59 1
    56   20   60 1
    57   21   23 1
    58   21   61 1
    59   21   62 1
    60   22   27 1
    61   22   63 1
    62   22   64 1
    63   23   29 1
    64   23   65 1
    65   23   66 1
    66   24   33 1
    67   24   34 1
    68   24   35 1
    69   29   67 1
