@<TRIPOS>MOLECULE
*****
   38    40     0     0     0
SMALL
NO_CHARGES

@<TRIPOS>ATOM
      1 C1          3.0108   -1.9321    3.0109 C.ar      1 <0>         0.0000
      2 C2          3.3770   -3.0790    3.7152 C.ar      1 <0>         0.0000
      3 C3          0.7096   -2.6679    3.0090 C.ar      1 <0>         0.0000
      4 C4          1.6771   -1.7265    2.6579 C.ar      1 <0>         0.0000
      5 C5          2.4095   -4.0204    4.0664 C.ar      1 <0>         0.0000
      6 C6          1.0758   -3.8149    3.7133 C.ar      1 <0>         0.0000
      7 C7          1.2920   -0.5177    1.9162 C.2       1 <0>         0.0000
      8 C8         -0.5941    1.5651    0.7584 C.3       1 <0>         0.0000
      9 C9         -1.5840    2.2033   -0.2427 C.3       1 <0>         0.0000
     10 C10         1.0031   -1.8180   -0.2327 C.3       1 <0>         0.0000
     11 C11        -0.1243   -2.1293   -1.2197 C.3       1 <0>         0.0000
     12 C12         0.0944    0.4534   -0.0331 C.3       1 <0>         0.0000
     13 C13        -1.0597   -0.0299   -0.9063 C.3       1 <0>         0.0000
     14 C14        -1.6153    1.2720   -1.4632 C.3       1 <0>         0.0000
     15 C15        -1.3912    2.8493   -3.1911 C.3       1 <0>         0.0000
     16 N1          0.6962   -0.6815    0.6590 N.am      1 <0>         0.0000
     17 O1          1.5185    0.5512    2.4799 O.2       1 <0>         0.0000
     18 O2         -0.5979   -0.9485   -1.8785 O.3       1 <0>         0.0000
     19 O3         -0.7589    1.8019   -2.4696 O.3       1 <0>         0.0000
     20 F1          2.7775   -5.1180    4.7428 F         1 <0>         0.0000
     21 Cl1        -0.1226   -4.9737    4.1437 Cl        1 <0>         0.0000
     22 H1          3.7734   -1.2045    2.7440 H         1 <0>         0.0000
     23 H2          4.4154   -3.2394    3.9904 H         1 <0>         0.0000
     24 H3         -0.3295   -2.5040    2.7320 H         1 <0>         0.0000
     25 H4          0.1156    2.3060    1.1393 H         1 <0>         0.0000
     26 H5         -1.1576    1.1590    1.6073 H         1 <0>         0.0000
     27 H6         -2.5733    2.2646    0.2245 H         1 <0>         0.0000
     28 H7         -1.2673    3.2173   -0.5095 H         1 <0>         0.0000
     29 H8          1.2487   -2.7176    0.3384 H         1 <0>         0.0000
     30 H9          1.9022   -1.5245   -0.7888 H         1 <0>         0.0000
     31 H10         0.2383   -2.8156   -1.9916 H         1 <0>         0.0000
     32 H11        -0.9627   -2.6214   -0.7119 H         1 <0>         0.0000
     33 H12         0.8988    0.8818   -0.6476 H         1 <0>         0.0000
     34 H13        -1.8421   -0.5071   -0.2965 H         1 <0>         0.0000
     35 H14        -2.6164    1.1649   -1.8897 H         1 <0>         0.0000
     36 H15        -0.7079    3.2319   -3.9532 H         1 <0>         0.0000
     37 H16        -1.6710    3.6503   -2.5021 H         1 <0>         0.0000
     38 H17        -2.2891    2.4566   -3.6741 H         1 <0>         0.0000
@<TRIPOS>BOND
     1    1    2 ar
     2    1    4 ar
     3    1   22 1
     4    2    5 ar
     5    2   23 1
     6    3    4 ar
     7    3    6 ar
     8    3   24 1
     9    4    7 1
    10    5    6 ar
    11    5   20 1
    12    6   21 1
    13    7   16 am
    14    7   17 2
    15    8    9 1
    16    8   12 1
    17    8   25 1
    18    8   26 1
    19    9   14 1
    20    9   27 1
    21    9   28 1
    22   10   11 1
    23   10   16 1
    24   10   29 1
    25   10   30 1
    26   11   18 1
    27   11   31 1
    28   11   32 1
    29   12   13 1
    30   12   16 1
    31   12   33 1
    32   13   14 1
    33   13   18 1
    34   13   34 1
    35   14   19 1
    36   14   35 1
    37   15   19 1
    38   15   36 1
    39   15   37 1
    40   15   38 1
