@<TRIPOS>MOLECULE
*****
   66    69     0     0     0
SMALL
NO_CHARGES

@<TRIPOS>ATOM
      1 C1         -0.9452    7.9340    2.4076 C.ar      1 <0>         0.0000
      2 C2         -2.4789    1.2365   -3.0977 C.ar      1 <0>         0.0000
      3 C3         -1.4718    6.6935    2.7333 C.ar      1 <0>         0.0000
      4 C4         -1.9787    1.4237   -1.8093 C.ar      1 <0>         0.0000
      5 C5         -4.1977    1.0889   -0.8695 C.ar      1 <0>         0.0000
      6 C6         -0.8536    8.2488    1.0394 C.ar      1 <0>         0.0000
      7 C7         -3.8405    0.9766   -3.2825 C.ar      1 <0>         0.0000
      8 C8         -4.6802    0.8969   -2.1660 C.ar      1 <0>         0.0000
      9 C9         -1.8163    6.0617    0.3652 C.ar      1 <0>         0.0000
     10 C10        -1.2872    7.3266    0.0806 C.ar      1 <0>         0.0000
     11 C11        -2.8334    1.3619   -0.6972 C.ar      1 <0>         0.0000
     12 C12        -1.8986    5.7817    1.7348 C.ar      1 <0>         0.0000
     13 C13        -0.4065    9.3503    0.2365 C.2       1 <0>         0.0000
     14 C14        -2.7071    0.7115   -6.2167 C.2       1 <0>         0.0000
     15 C15        -6.1082    0.6455   -2.5961 C.3       1 <0>         0.0000
     16 C16        -5.9456    0.1403   -4.0469 C.3       1 <0>         0.0000
     17 C17        -4.6453    0.8089   -4.5641 C.3       1 <0>         0.0000
     18 C18        -4.1773    4.6498   -2.3851 C.3       1 <0>         0.0000
     19 C19        -4.9057   -0.2185   -6.8901 C.3       1 <0>         0.0000
     20 C20        -1.7916    2.7478   -7.0040 C.3       1 <0>         0.0000
     21 C21        -2.3024    5.1375   -0.7204 C.3       1 <0>         0.0000
     22 C22        -3.7215    5.5055   -1.1998 C.3       1 <0>         0.0000
     23 C23        -2.2160    2.2845    2.8006 C.3       1 <0>         0.0000
     24 C24        -3.0909    1.7991    1.6526 C.3       1 <0>         0.0000
     25 C25        -1.4732    3.5718    2.4753 C.3       1 <0>         0.0000
     26 C26        -3.9587    0.0239   -5.6973 C.3       1 <0>         0.0000
     27 C27         0.1716   10.6485    0.7254 C.3       1 <0>         0.0000
     28 N1         -0.5493    9.1287   -1.0460 N.2       1 <0>         0.0000
     29 O1         -1.6374    0.1643   -6.4104 O.2       1 <0>         0.0000
     30 O2         -1.1081    7.8495   -1.1697 O.3       1 <0>         0.0000
     31 O3         -2.2424    1.5931    0.5198 O.3       1 <0>         0.0000
     32 O4         -2.4479    4.5819    2.1379 O.3       1 <0>         0.0000
     33 O5         -2.9236    2.0238   -6.4816 O.3       1 <0>         0.0000
     34 F1         -0.7236   11.3015    1.5105 F         1 <0>         0.0000
     35 F2          1.2682   10.4191    1.4931 F         1 <0>         0.0000
     36 F3          0.5269   11.4707   -0.2711 F         1 <0>         0.0000
     37 H1         -0.6265    8.6325    3.1744 H         1 <0>         0.0000
     38 H2         -1.7925    1.2964   -3.9361 H         1 <0>         0.0000
     39 H3         -1.5862    6.3970    3.7718 H         1 <0>         0.0000
     40 H4         -0.9259    1.6314   -1.6415 H         1 <0>         0.0000
     41 H5         -4.8733    1.0296   -0.0228 H         1 <0>         0.0000
     42 H6         -6.6360   -0.0653   -1.9522 H         1 <0>         0.0000
     43 H7         -6.6759    1.5860   -2.5735 H         1 <0>         0.0000
     44 H8         -5.8081   -0.9481   -4.0361 H         1 <0>         0.0000
     45 H9         -6.8142    0.3612   -4.6726 H         1 <0>         0.0000
     46 H10        -4.8904    1.8067   -4.9526 H         1 <0>         0.0000
     47 H11        -3.4991    4.7652   -3.2382 H         1 <0>         0.0000
     48 H12        -4.2014    3.5890   -2.1250 H         1 <0>         0.0000
     49 H13        -5.1806    4.9415   -2.7146 H         1 <0>         0.0000
     50 H14        -5.2931    0.7286   -7.2778 H         1 <0>         0.0000
     51 H15        -5.7529   -0.8391   -6.5865 H         1 <0>         0.0000
     52 H16        -4.3850   -0.7364   -7.7014 H         1 <0>         0.0000
     53 H17        -2.1437    3.7676   -7.1584 H         1 <0>         0.0000
     54 H18        -1.4574    2.3063   -7.9458 H         1 <0>         0.0000
     55 H19        -0.9662    2.7310   -6.2881 H         1 <0>         0.0000
     56 H20        -1.6146    5.1908   -1.5718 H         1 <0>         0.0000
     57 H21        -2.2930    4.1073   -0.3615 H         1 <0>         0.0000
     58 H22        -4.4171    5.3884   -0.3602 H         1 <0>         0.0000
     59 H23        -3.7414    6.5657   -1.4778 H         1 <0>         0.0000
     60 H24        -2.8513    2.4351    3.6804 H         1 <0>         0.0000
     61 H25        -1.4764    1.5163    3.0523 H         1 <0>         0.0000
     62 H26        -3.5934    0.8616    1.9248 H         1 <0>         0.0000
     63 H27        -3.8519    2.5503    1.4136 H         1 <0>         0.0000
     64 H28        -0.7987    3.4244    1.6249 H         1 <0>         0.0000
     65 H29        -0.8804    3.9046    3.3370 H         1 <0>         0.0000
     66 H30        -3.6185   -0.9413   -5.3099 H         1 <0>         0.0000
@<TRIPOS>BOND
     1    1    3 ar
     2    1    6 ar
     3    1   37 1
     4    2    4 ar
     5    2    7 ar
     6    2   38 1
     7    3   12 ar
     8    3   39 1
     9    4   11 ar
    10    4   40 1
    11    5    8 ar
    12    5   11 ar
    13    5   41 1
    14    6   10 ar
    15    6   13 1
    16    7    8 ar
    17    7   17 1
    18    8   15 1
    19    9   10 ar
    20    9   12 ar
    21    9   21 1
    22   10   30 1
    23   11   31 1
    24   12   32 1
    25   13   27 1
    26   13   28 2
    27   14   26 1
    28   14   29 2
    29   14   33 1
    30   15   16 1
    31   15   42 1
    32   15   43 1
    33   16   17 1
    34   16   44 1
    35   16   45 1
    36   17   26 1
    37   17   46 1
    38   18   22 1
    39   18   47 1
    40   18   48 1
    41   18   49 1
    42   19   26 1
    43   19   50 1
    44   19   51 1
    45   19   52 1
    46   20   33 1
    47   20   53 1
    48   20   54 1
    49   20   55 1
    50   21   22 1
    51   21   56 1
    52   21   57 1
    53   22   58 1
    54   22   59 1
    55   23   24 1
    56   23   25 1
    57   23   60 1
    58   23   61 1
    59   24   31 1
    60   24   62 1
    61   24   63 1
    62   25   32 1
    63   25   64 1
    64   25   65 1
    65   26   66 1
    66   27   34 1
    67   27   35 1
    68   27   36 1
    69   28   30 1
