@<TRIPOS>MOLECULE
*****
   72    76     0     0     0
SMALL
NO_CHARGES

@<TRIPOS>ATOM
      1 C1          3.3497   -1.3366   -4.0202 C.ar      1 <0>         0.0000
      2 C2          4.4618  -12.3512   -6.3527 C.ar      1 <0>         0.0000
      3 C3          3.7610   -1.7140   -2.7366 C.ar      1 <0>         0.0000
      4 C4          2.2999   -0.4235   -4.1630 C.ar      1 <0>         0.0000
      5 C5          3.0633  -12.3212   -6.3200 C.ar      1 <0>         0.0000
      6 C6          5.1922  -12.4084   -5.1591 C.ar      1 <0>         0.0000
      7 C7          3.1235   -1.1918   -1.6110 C.ar      1 <0>         0.0000
      8 C8          1.6697    0.1054   -3.0337 C.ar      1 <0>         0.0000
      9 C9          1.3442   -2.7254    1.5490 C.ar      1 <0>         0.0000
     10 C10         0.3848   -2.6566   -0.6533 C.ar      1 <0>         0.0000
     11 C11        -0.6900   -0.2805    2.3817 C.ar      1 <0>         0.0000
     12 C12         1.3147   -4.1239    1.5331 C.ar      1 <0>         0.0000
     13 C13         0.3385   -4.0444   -0.6827 C.ar      1 <0>         0.0000
     14 C14        -1.1704    0.3112    3.5493 C.ar      1 <0>         0.0000
     15 C15         2.3867  -12.3391   -5.0956 C.ar      1 <0>         0.0000
     16 C16         4.5247  -12.4325   -3.9310 C.ar      1 <0>         0.0000
     17 C17         0.7342    1.8087    3.5360 C.ar      1 <0>         0.0000
     18 C18         0.9009   -1.9639    0.4593 C.ar      1 <0>         0.0000
     19 C19         2.0603   -0.2787   -1.7383 C.ar      1 <0>         0.0000
     20 C20         0.4860    0.1647    1.7586 C.ar      1 <0>         0.0000
     21 C21         1.2135    1.2208    2.3630 C.ar      1 <0>         0.0000
     22 C22         0.8113   -4.7917    0.4085 C.ar      1 <0>         0.0000
     23 C23        -0.4537    1.3660    4.1267 C.ar      1 <0>         0.0000
     24 C24         3.1284  -12.3821   -3.9160 C.ar      1 <0>         0.0000
     25 C25         0.9572   -0.4787    0.5025 C.2       1 <0>         0.0000
     26 C26         1.3935    0.2856   -0.5370 C.2       1 <0>         0.0000
     27 C27         2.5164    1.6873    1.7549 C.3       1 <0>         0.0000
     28 C28         1.2592    1.7962   -0.4644 C.3       1 <0>         0.0000
     29 C29         2.3339    2.4509    0.4269 C.3       1 <0>         0.0000
     30 C30         1.8741   -8.8057   -0.2872 C.3       1 <0>         0.0000
     31 C31         1.0588   -8.4214    0.9526 C.3       1 <0>         0.0000
     32 C32         1.7154  -10.2864   -0.6546 C.3       1 <0>         0.0000
     33 C33         1.2224   -6.9627    1.3538 C.3       1 <0>         0.0000
     34 C34         2.4977  -10.6466   -1.9142 C.3       1 <0>         0.0000
     35 O1          0.7421  -12.5402   -2.6817 O.2       1 <0>         0.0000
     36 O2         -0.8619    1.9965    5.2790 O.3       1 <0>         0.0000
     37 O3          0.7286   -6.1525    0.2838 O.3       1 <0>         0.0000
     38 S1          2.2189  -12.4265   -2.3381 S.o       1 <0>         0.0000
     39 H1          3.8435   -1.7461   -4.8978 H         1 <0>         0.0000
     40 H2          4.9833  -12.3399   -7.3062 H         1 <0>         0.0000
     41 H3          4.5815   -2.4166   -2.6128 H         1 <0>         0.0000
     42 H4          1.9694   -0.1240   -5.1546 H         1 <0>         0.0000
     43 H5          2.4982  -12.2876   -7.2479 H         1 <0>         0.0000
     44 H6          6.2782  -12.4434   -5.1847 H         1 <0>         0.0000
     45 H7          3.4440   -1.4937   -0.6186 H         1 <0>         0.0000
     46 H8          0.8463    0.8039   -3.1607 H         1 <0>         0.0000
     47 H9          1.7276   -2.2177    2.4301 H         1 <0>         0.0000
     48 H10         0.0159   -2.0948   -1.5055 H         1 <0>         0.0000
     49 H11        -1.2418   -1.1046    1.9383 H         1 <0>         0.0000
     50 H12         1.6780   -4.6710    2.3956 H         1 <0>         0.0000
     51 H13        -0.0638   -4.5743   -1.5413 H         1 <0>         0.0000
     52 H14        -2.0920   -0.0458    4.0069 H         1 <0>         0.0000
     53 H15         1.3015  -12.3301   -5.0334 H         1 <0>         0.0000
     54 H16         5.0881  -12.4946   -3.0020 H         1 <0>         0.0000
     55 H17         1.2835    2.6149    4.0152 H         1 <0>         0.0000
     56 H18         3.0616    2.3116    2.4695 H         1 <0>         0.0000
     57 H19         3.1391    0.8071    1.5589 H         1 <0>         0.0000
     58 H20         1.3173    2.2319   -1.4655 H         1 <0>         0.0000
     59 H21         0.2743    2.0495   -0.0579 H         1 <0>         0.0000
     60 H22         2.0373    3.4883    0.6233 H         1 <0>         0.0000
     61 H23         3.2967    2.4836   -0.0962 H         1 <0>         0.0000
     62 H24         1.5598   -8.1803   -1.1295 H         1 <0>         0.0000
     63 H25         2.9346   -8.5800   -0.1092 H         1 <0>         0.0000
     64 H26        -0.0043   -8.6231    0.7764 H         1 <0>         0.0000
     65 H27         1.3619   -9.0393    1.8077 H         1 <0>         0.0000
     66 H28         2.0507  -10.9139    0.1817 H         1 <0>         0.0000
     67 H29         0.6577  -10.5172   -0.8210 H         1 <0>         0.0000
     68 H30         2.2805   -6.7283    1.5378 H         1 <0>         0.0000
     69 H31         0.6583   -6.7495    2.2717 H         1 <0>         0.0000
     70 H32         2.1616  -10.0685   -2.7806 H         1 <0>         0.0000
     71 H33         3.5773  -10.5101   -1.7881 H         1 <0>         0.0000
     72 H34        -1.6933    1.5958    5.5784 H         1 <0>         0.0000
@<TRIPOS>BOND
     1    1    4 ar
     2    1    3 ar
     3    1   39 1
     4    2    6 ar
     5    2    5 ar
     6    2   40 1
     7    3    7 ar
     8    3   41 1
     9    4    8 ar
    10    4   42 1
    11    5   15 ar
    12    5   43 1
    13    6   16 ar
    14    6   44 1
    15    7   19 ar
    16    7   45 1
    17    8   19 ar
    18    8   46 1
    19    9   12 ar
    20    9   18 ar
    21    9   47 1
    22   10   13 ar
    23   10   18 ar
    24   10   48 1
    25   11   14 ar
    26   11   20 ar
    27   11   49 1
    28   12   22 ar
    29   12   50 1
    30   13   22 ar
    31   13   51 1
    32   14   23 ar
    33   14   52 1
    34   15   24 ar
    35   15   53 1
    36   16   24 ar
    37   16   54 1
    38   17   21 ar
    39   17   23 ar
    40   17   55 1
    41   18   25 1
    42   19   26 1
    43   20   21 ar
    44   20   25 1
    45   21   27 1
    46   22   37 1
    47   23   36 1
    48   24   38 1
    49   25   26 2
    50   26   28 1
    51   27   29 1
    52   27   56 1
    53   27   57 1
    54   28   29 1
    55   28   58 1
    56   28   59 1
    57   29   60 1
    58   29   61 1
    59   30   31 1
    60   30   32 1
    61   30   62 1
    62   30   63 1
    63   31   33 1
    64   31   64 1
    65   31   65 1
    66   32   34 1
    67   32   66 1
    68   32   67 1
    69   33   37 1
    70   33   68 1
    71   33   69 1
    72   34   38 1
    73   34   70 1
    74   34   71 1
    75   35   38 2
    76   36   72 1
