@<TRIPOS>MOLECULE
*****
   56    59     0     0     0
SMALL
NO_CHARGES

@<TRIPOS>ATOM
      1 C1          4.7651   -2.6554    5.3539 C.ar      1 <0>         0.0000
      2 C2         -0.0791   -8.7508    0.2788 C.ar      1 <0>         0.0000
      3 C3          3.4451   -2.2113    5.4926 C.ar      1 <0>         0.0000
      4 C4          5.0387   -4.0272    5.3604 C.ar      1 <0>         0.0000
      5 C5          1.2501   -8.3337    0.1570 C.ar      1 <0>         0.0000
      6 C6         -0.7822   -8.4771    1.4574 C.ar      1 <0>         0.0000
      7 C7         -1.3212   -2.9711    3.7360 C.ar      1 <0>         0.0000
      8 C8          0.1501   -3.1532    1.8529 C.ar      1 <0>         0.0000
      9 C9          2.4069   -3.1366    5.6300 C.ar      1 <0>         0.0000
     10 C10         3.9951   -4.9488    5.4953 C.ar      1 <0>         0.0000
     11 C11         1.8661   -7.6461    1.2074 C.ar      1 <0>         0.0000
     12 C12        -0.1618   -7.7948    2.5068 C.ar      1 <0>         0.0000
     13 C13        -0.7261   -4.0925    4.3074 C.ar      1 <0>         0.0000
     14 C14         0.7671   -4.2664    2.4287 C.ar      1 <0>         0.0000
     15 C15        -0.8876   -2.4688    2.5002 C.ar      1 <0>         0.0000
     16 C16         2.6677   -4.5165    5.6268 C.ar      1 <0>         0.0000
     17 C17         1.1692   -7.3732    2.3910 C.ar      1 <0>         0.0000
     18 C18         0.3521   -4.7450    3.6826 C.ar      1 <0>         0.0000
     19 C19        -0.0787    0.2610    3.5443 C.2       1 <0>         0.0000
     20 C20        -3.1594   -0.3794    0.8420 C.3       1 <0>         0.0000
     21 C21        -2.8715   -0.7324    2.3267 C.3       1 <0>         0.0000
     22 C22        -1.9274   -1.2294    0.4309 C.3       1 <0>         0.0000
     23 C23        -1.4356   -1.1880    1.9157 C.3       1 <0>         0.0000
     24 C24         1.5240   -5.5121    5.6775 C.3       1 <0>         0.0000
     25 C25         1.8703   -6.6677    3.5364 C.3       1 <0>         0.0000
     26 C26        -0.4063   -0.0383    2.0891 C.3       1 <0>         0.0000
     27 N1          0.9735   -5.8386    4.3396 N.pl3     1 <0>         0.0000
     28 O1         -0.5822    1.1640    4.1761 O.2       1 <0>         0.0000
     29 O2          0.8396   -0.5545    4.1397 O.3       1 <0>         0.0000
     30 H1          5.5750   -1.9377    5.2504 H         1 <0>         0.0000
     31 H2         -0.5637   -9.2792   -0.5383 H         1 <0>         0.0000
     32 H3          3.2171   -1.1489    5.4978 H         1 <0>         0.0000
     33 H4          6.0630   -4.3790    5.2649 H         1 <0>         0.0000
     34 H5          1.8040   -8.5365   -0.7563 H         1 <0>         0.0000
     35 H6         -1.8178   -8.7931    1.5572 H         1 <0>         0.0000
     36 H7         -2.1225   -2.4702    4.2717 H         1 <0>         0.0000
     37 H8          0.4997   -2.8053    0.8827 H         1 <0>         0.0000
     38 H9          1.3876   -2.7781    5.7434 H         1 <0>         0.0000
     39 H10         4.2166   -6.0143    5.5045 H         1 <0>         0.0000
     40 H11         2.8976   -7.3139    1.1027 H         1 <0>         0.0000
     41 H12        -0.7089   -7.5698    3.4174 H         1 <0>         0.0000
     42 H13        -1.0929   -4.4610    5.2609 H         1 <0>         0.0000
     43 H14         1.5773   -4.7473    1.8948 H         1 <0>         0.0000
     44 H15        -3.0253    0.6849    0.6308 H         1 <0>         0.0000
     45 H16        -4.1268   -0.6920    0.4416 H         1 <0>         0.0000
     46 H17        -2.9404    0.0698    3.0657 H         1 <0>         0.0000
     47 H18        -3.4788   -1.5781    2.6594 H         1 <0>         0.0000
     48 H19        -2.2053   -2.2457    0.1388 H         1 <0>         0.0000
     49 H20        -1.2524   -0.8155   -0.3255 H         1 <0>         0.0000
     50 H21         1.8495   -6.4525    6.1322 H         1 <0>         0.0000
     51 H22         0.7153   -5.1224    6.2981 H         1 <0>         0.0000
     52 H23         2.2785   -7.4268    4.2136 H         1 <0>         0.0000
     53 H24         2.7388   -6.1098    3.1517 H         1 <0>         0.0000
     54 H25         0.5086   -0.2987    1.5444 H         1 <0>         0.0000
     55 H26        -0.8057    0.8835    1.6609 H         1 <0>         0.0000
     56 H27         1.0457   -1.3096    3.5574 H         1 <0>         0.0000
@<TRIPOS>BOND
     1    1    4 ar
     2    1    3 ar
     3    1   30 1
     4    2    6 ar
     5    2    5 ar
     6    2   31 1
     7    3    9 ar
     8    3   32 1
     9    4   10 ar
    10    4   33 1
    11    5   11 ar
    12    5   34 1
    13    6   12 ar
    14    6   35 1
    15    7   13 ar
    16    7   15 ar
    17    7   36 1
    18    8   14 ar
    19    8   15 ar
    20    8   37 1
    21    9   16 ar
    22    9   38 1
    23   10   16 ar
    24   10   39 1
    25   11   17 ar
    26   11   40 1
    27   12   17 ar
    28   12   41 1
    29   13   18 ar
    30   13   42 1
    31   14   18 ar
    32   14   43 1
    33   15   23 1
    34   16   24 1
    35   17   25 1
    36   18   27 1
    37   19   26 1
    38   19   28 2
    39   19   29 1
    40   20   22 1
    41   20   21 1
    42   20   44 1
    43   20   45 1
    44   21   23 1
    45   21   46 1
    46   21   47 1
    47   22   23 1
    48   22   48 1
    49   22   49 1
    50   23   26 1
    51   24   27 1
    52   24   50 1
    53   24   51 1
    54   25   27 1
    55   25   52 1
    56   25   53 1
    57   26   54 1
    58   26   55 1
    59   29   56 1
