@<TRIPOS>MOLECULE
*****
   58    62     0     0     0
SMALL
NO_CHARGES

@<TRIPOS>ATOM
      1 C1         -0.7088    5.9550    4.4501 C.ar      1 <0>         0.0000
      2 C2          0.1788    5.7804    5.5308 C.ar      1 <0>         0.0000
      3 C3         -1.0377    4.8760    3.6237 C.ar      1 <0>         0.0000
      4 C4         -4.3969    1.8691    4.1171 C.ar      1 <0>         0.0000
      5 C5         -4.3849   -0.4335    3.1705 C.ar      1 <0>         0.0000
      6 C6         -1.2643    1.8296    2.1235 C.ar      1 <0>         0.0000
      7 C7          0.7563    4.5372    5.8041 C.ar      1 <0>         0.0000
      8 C8         -3.9147    2.7918    5.0256 C.ar      1 <0>         0.0000
      9 C9         -3.8681   -1.7097    3.1584 C.ar      1 <0>         0.0000
     10 C10        -1.1148    0.4944    1.7655 C.ar      1 <0>         0.0000
     11 C11        -2.3574    1.1379    5.9074 C.ar      1 <0>         0.0000
     12 C12        -2.3182   -1.1404    4.9486 C.ar      1 <0>         0.0000
     13 C13         0.5244    0.1363    3.5534 C.ar      1 <0>         0.0000
     14 C14        -3.8973    0.5445    4.0782 C.ar      1 <0>         0.0000
     15 C15        -0.4643    3.6233    3.8693 C.ar      1 <0>         0.0000
     16 C16        -0.5435    2.3371    3.2139 C.ar      1 <0>         0.0000
     17 C17        -2.8536    0.1803    4.9913 C.ar      1 <0>         0.0000
     18 C18         0.4370    3.4605    4.9687 C.ar      1 <0>         0.0000
     19 C19         0.3245    1.4687    3.9292 C.ar      1 <0>         0.0000
     20 C20        -2.8908    2.4140    5.9351 C.ar      1 <0>         0.0000
     21 C21        -2.8146   -2.0582    4.0506 C.ar      1 <0>         0.0000
     22 C22        -0.2326   -0.3424    2.4860 C.ar      1 <0>         0.0000
     23 C23         1.5287    0.1233    6.4100 C.2       1 <0>         0.0000
     24 C24        -2.8884    4.5862    6.9460 C.3       1 <0>         0.0000
     25 C25         1.8731    1.5796    5.9126 C.3       1 <0>         0.0000
     26 C26        -0.3325   -3.9587    2.7461 C.3       1 <0>         0.0000
     27 C27        -1.8600   -3.8803    2.7982 C.3       1 <0>         0.0000
     28 C28         0.3251   -2.6138    3.0239 C.3       1 <0>         0.0000
     29 N1          0.8869    2.1500    4.9988 N.pl3     1 <0>         0.0000
     30 O1          0.3473   -0.0556    6.8092 O.co2     1 <0>         0.0000
     31 O2          2.4877   -0.6866    6.3486 O.co2     1 <0>         0.0000
     32 O3         -2.3690    3.2691    6.8761 O.3       1 <0>         0.0000
     33 O4         -2.3084   -3.3519    4.0561 O.3       1 <0>         0.0000
     34 O5         -0.1991   -1.6606    2.0874 O.3       1 <0>         0.0000
     35 H1         -1.1417    6.9351    4.2622 H         1 <0>         0.0000
     36 H2          0.4189    6.6283    6.1688 H         1 <0>         0.0000
     37 H3         -1.7275    5.0086    2.7928 H         1 <0>         0.0000
     38 H4         -5.1766    2.1608    3.4153 H         1 <0>         0.0000
     39 H5         -5.1861   -0.1646    2.4840 H         1 <0>         0.0000
     40 H6         -1.9635    2.4616    1.5811 H         1 <0>         0.0000
     41 H7          1.4348    4.4156    6.6432 H         1 <0>         0.0000
     42 H8         -4.3114    3.8010    5.0256 H         1 <0>         0.0000
     43 H9         -4.2646   -2.4587    2.4781 H         1 <0>         0.0000
     44 H10        -1.6997    0.0563    0.9627 H         1 <0>         0.0000
     45 H11        -1.5181    0.8787    6.5503 H         1 <0>         0.0000
     46 H12        -1.5004   -1.3938    5.6185 H         1 <0>         0.0000
     47 H13         1.2053   -0.4953    4.1078 H         1 <0>         0.0000
     48 H14        -2.3158    5.0895    7.7275 H         1 <0>         0.0000
     49 H15        -3.9541    4.5848    7.2197 H         1 <0>         0.0000
     50 H16        -2.7460    5.1279    6.0056 H         1 <0>         0.0000
     51 H17         1.9224    2.2256    6.7930 H         1 <0>         0.0000
     52 H18         2.8573    1.5672    5.4319 H         1 <0>         0.0000
     53 H19         0.0316   -4.6731    3.4937 H         1 <0>         0.0000
     54 H20        -0.0407   -4.3347    1.7562 H         1 <0>         0.0000
     55 H21        -2.2190   -3.2583    1.9748 H         1 <0>         0.0000
     56 H22        -2.2931   -4.8824    2.6926 H         1 <0>         0.0000
     57 H23         1.4161   -2.6769    2.9233 H         1 <0>         0.0000
     58 H24         0.0987   -2.3018    4.0451 H         1 <0>         0.0000
@<TRIPOS>BOND
     1    1    2 ar
     2    1    3 ar
     3    1   35 1
     4    2    7 ar
     5    2   36 1
     6    3   15 ar
     7    3   37 1
     8    4    8 ar
     9    4   14 ar
    10    4   38 1
    11    5    9 ar
    12    5   14 ar
    13    5   39 1
    14    6   10 ar
    15    6   16 ar
    16    6   40 1
    17    7   18 ar
    18    7   41 1
    19    8   20 ar
    20    8   42 1
    21    9   21 ar
    22    9   43 1
    23   10   22 ar
    24   10   44 1
    25   11   17 ar
    26   11   20 ar
    27   11   45 1
    28   12   17 ar
    29   12   21 ar
    30   12   46 1
    31   13   19 ar
    32   13   22 ar
    33   13   47 1
    34   14   17 ar
    35   15   16 1
    36   15   18 ar
    37   16   19 ar
    38   18   29 1
    39   19   29 1
    40   20   32 1
    41   21   33 1
    42   22   34 1
    43   23   25 1
    44   23   30 1
    45   23   31 2
    46   24   32 1
    47   24   48 1
    48   24   49 1
    49   24   50 1
    50   25   29 1
    51   25   51 1
    52   25   52 1
    53   26   27 1
    54   26   28 1
    55   26   53 1
    56   26   54 1
    57   27   33 1
    58   27   55 1
    59   27   56 1
    60   28   34 1
    61   28   57 1
    62   28   58 1
