@<TRIPOS>MOLECULE
*****
   74    77     0     0     0
SMALL
NO_CHARGES

@<TRIPOS>ATOM
      1 C1          3.6230   -3.6279    4.7535 C.ar      1 <0>         0.0000
      2 C2          3.2809   -2.7576    5.7950 C.ar      1 <0>         0.0000
      3 C3          4.9593   -3.7249    4.3523 C.ar      1 <0>         0.0000
      4 C4         -6.0994    7.2465   -3.2890 C.ar      1 <0>         0.0000
      5 C5         -5.6575    8.1612   -4.2477 C.ar      1 <0>         0.0000
      6 C6          4.2629   -1.9878    6.4194 C.ar      1 <0>         0.0000
      7 C7          5.9413   -2.9585    4.9859 C.ar      1 <0>         0.0000
      8 C8          8.0835    2.0438    7.1685 C.ar      1 <0>         0.0000
      9 C9          7.7066    0.5850    9.0421 C.ar      1 <0>         0.0000
     10 C10         4.7416    1.8618    6.8714 C.ar      1 <0>         0.0000
     11 C11         5.1816    0.7121    4.8081 C.ar      1 <0>         0.0000
     12 C12         8.9458    2.8244    7.9334 C.ar      1 <0>         0.0000
     13 C13         8.5615    1.3633    9.8269 C.ar      1 <0>         0.0000
     14 C14         3.7396    2.6020    6.2546 C.ar      1 <0>         0.0000
     15 C15         4.1855    1.4547    4.1683 C.ar      1 <0>         0.0000
     16 C16        -5.1888    6.3276   -2.7678 C.ar      1 <0>         0.0000
     17 C17        -4.3169    8.1154   -4.6402 C.ar      1 <0>         0.0000
     18 C18         7.4602    0.8980    7.6973 C.ar      1 <0>         0.0000
     19 C19         5.4709    0.8836    6.1681 C.ar      1 <0>         0.0000
     20 C20         5.6086   -2.0659    6.0190 C.ar      1 <0>         0.0000
     21 C21         9.1895    2.4831    9.2704 C.ar      1 <0>         0.0000
     22 C22         3.4494    2.3997    4.8959 C.ar      1 <0>         0.0000
     23 C23        -3.8641    6.3664   -3.2254 C.ar      1 <0>         0.0000
     24 C24         6.5299    0.0924    6.8567 C.2       1 <0>         0.0000
     25 C25         6.6524   -1.2540    6.7089 C.2       1 <0>         0.0000
     26 C26         7.4487   -3.0553    8.3349 C.3       1 <0>         0.0000
     27 C27        -2.8284    5.4127   -2.6897 C.3       1 <0>         0.0000
     28 C28         7.8312   -2.0492    7.2359 C.3       1 <0>         0.0000
     29 C29         0.5065    3.8257    1.2202 C.3       1 <0>         0.0000
     30 C30         0.9525    3.9397    2.6823 C.3       1 <0>         0.0000
     31 C31        -0.6591    4.7681    0.8927 C.3       1 <0>         0.0000
     32 C32         2.1024    2.9953    3.0007 C.3       1 <0>         0.0000
     33 C33        -1.0820    4.6421   -0.5713 C.3       1 <0>         0.0000
     34 N1         -3.4297    7.2428   -4.1443 N.ar      1 <0>         0.0000
     35 O1         -3.6341    5.3162   -0.1358 O.2       1 <0>         0.0000
     36 O2         -1.9853    7.1498   -0.7993 O.2       1 <0>         0.0000
     37 O3         10.0431    3.2893    9.9857 O.3       1 <0>         0.0000
     38 O4          2.4464    3.1740    4.3753 O.3       1 <0>         0.0000
     39 S1         -2.4693    5.7662   -0.9244 S.o2      1 <0>         0.0000
     40 H1          2.8587   -4.2269    4.2648 H         1 <0>         0.0000
     41 H2          2.2470   -2.6794    6.1221 H         1 <0>         0.0000
     42 H3          5.2382   -4.3979    3.5450 H         1 <0>         0.0000
     43 H4         -7.1324    7.2493   -2.9512 H         1 <0>         0.0000
     44 H5         -6.3299    8.8952   -4.6826 H         1 <0>         0.0000
     45 H6          3.9906   -1.3096    7.2225 H         1 <0>         0.0000
     46 H7          6.9737   -3.0393    4.6556 H         1 <0>         0.0000
     47 H8          7.8880    2.3231    6.1368 H         1 <0>         0.0000
     48 H9          7.2107   -0.2714    9.4890 H         1 <0>         0.0000
     49 H10         4.9610    2.0366    7.9212 H         1 <0>         0.0000
     50 H11         5.7415   -0.0186    4.2333 H         1 <0>         0.0000
     51 H12         9.4331    3.7008    7.5163 H         1 <0>         0.0000
     52 H13         8.7301    1.1020   10.8708 H         1 <0>         0.0000
     53 H14         3.1695    3.3457    6.8041 H         1 <0>         0.0000
     54 H15         3.9981    1.2871    3.1138 H         1 <0>         0.0000
     55 H16        -5.4799    5.6115   -2.0059 H         1 <0>         0.0000
     56 H17        -3.9353    8.8115   -5.3853 H         1 <0>         0.0000
     57 H18         6.6956   -3.7638    7.9771 H         1 <0>         0.0000
     58 H19         7.0332   -2.5453    9.2105 H         1 <0>         0.0000
     59 H20         8.3256   -3.6256    8.6599 H         1 <0>         0.0000
     60 H21        -1.8963    5.5363   -3.2433 H         1 <0>         0.0000
     61 H22        -3.1626    4.3721   -2.7145 H         1 <0>         0.0000
     62 H23         8.6113   -1.3769    7.5971 H         1 <0>         0.0000
     63 H24         8.2709   -2.6094    6.4003 H         1 <0>         0.0000
     64 H25         1.3542    4.0496    0.5589 H         1 <0>         0.0000
     65 H26         0.2099    2.7901    1.0059 H         1 <0>         0.0000
     66 H27         0.1139    3.7137    3.3507 H         1 <0>         0.0000
     67 H28         1.2662    4.9666    2.9013 H         1 <0>         0.0000
     68 H29        -1.5149    4.5399    1.5360 H         1 <0>         0.0000
     69 H30        -0.3687    5.8039    1.0950 H         1 <0>         0.0000
     70 H31         1.8072    1.9518    2.8225 H         1 <0>         0.0000
     71 H32         2.9720    3.2163    2.3660 H         1 <0>         0.0000
     72 H33        -0.2735    4.9234   -1.2526 H         1 <0>         0.0000
     73 H34        -1.4279    3.6314   -0.8087 H         1 <0>         0.0000
     74 H35        10.1203    2.9445   10.8893 H         1 <0>         0.0000
@<TRIPOS>BOND
     1    1    3 ar
     2    1    2 ar
     3    1   40 1
     4    2    6 ar
     5    2   41 1
     6    3    7 ar
     7    3   42 1
     8    4    5 ar
     9    4   16 ar
    10    4   43 1
    11    5   17 ar
    12    5   44 1
    13    6   20 ar
    14    6   45 1
    15    7   20 ar
    16    7   46 1
    17    8   12 ar
    18    8   18 ar
    19    8   47 1
    20    9   13 ar
    21    9   18 ar
    22    9   48 1
    23   10   14 ar
    24   10   19 ar
    25   10   49 1
    26   11   15 ar
    27   11   19 ar
    28   11   50 1
    29   12   21 ar
    30   12   51 1
    31   13   21 ar
    32   13   52 1
    33   14   22 ar
    34   14   53 1
    35   15   22 ar
    36   15   54 1
    37   16   23 ar
    38   16   55 1
    39   17   34 ar
    40   17   56 1
    41   18   24 1
    42   19   24 1
    43   20   25 1
    44   21   37 1
    45   22   38 1
    46   23   27 1
    47   23   34 ar
    48   24   25 2
    49   25   28 1
    50   26   28 1
    51   26   57 1
    52   26   58 1
    53   26   59 1
    54   27   39 1
    55   27   60 1
    56   27   61 1
    57   28   62 1
    58   28   63 1
    59   29   30 1
    60   29   31 1
    61   29   64 1
    62   29   65 1
    63   30   32 1
    64   30   66 1
    65   30   67 1
    66   31   33 1
    67   31   68 1
    68   31   69 1
    69   32   38 1
    70   32   70 1
    71   32   71 1
    72   33   39 1
    73   33   72 1
    74   33   73 1
    75   35   39 2
    76   36   39 2
    77   37   74 1
