@<TRIPOS>MOLECULE
*****
   27    28     0     0     0
SMALL
NO_CHARGES

@<TRIPOS>ATOM
      1 C1          5.8641    0.5060   -1.5405 C.ar      1 <0>         0.0000
      2 C2          5.7241    1.5562   -2.4452 C.ar      1 <0>         0.0000
      3 C3          3.5313    1.9845   -1.8721 C.ar      1 <0>         0.0000
      4 C4          3.2055   -0.6027    0.6792 C.2       1 <0>         0.0000
      5 C5          3.5350    0.9486   -0.9212 C.ar      1 <0>         0.0000
      6 C6          2.5678    0.4159    0.0129 C.2       1 <0>         0.0000
      7 C7          4.7378    0.2052   -0.7663 C.ar      1 <0>         0.0000
      8 C8          1.1486    0.8654    0.2029 C.3       1 <0>         0.0000
      9 C9          0.1066   -0.9024   -1.2759 C.3       1 <0>         0.0000
     10 C10         0.2252    0.5898   -0.9997 C.3       1 <0>         0.0000
     11 N1          4.5961    2.2853   -2.6166 N.ar      1 <0>         0.0000
     12 N2          4.5117   -0.7387    0.2102 N.pl3     1 <0>         0.0000
     13 N3         -1.1147    1.1141   -0.6967 N.3       1 <0>         0.0000
     14 O1         -0.7393   -1.0627   -2.4256 O.3       1 <0>         0.0000
     15 H1          6.8020   -0.0360   -1.4537 H         1 <0>         0.0000
     16 H2          6.5657    1.8375   -3.0755 H         1 <0>         0.0000
     17 H3          2.6400    2.5899   -2.0345 H         1 <0>         0.0000
     18 H4          2.8325   -1.2525    1.4604 H         1 <0>         0.0000
     19 H5          0.7128    0.3858    1.0861 H         1 <0>         0.0000
     20 H6          1.1293    1.9453    0.4002 H         1 <0>         0.0000
     21 H7         -0.3352   -1.3950   -0.3971 H         1 <0>         0.0000
     22 H8          1.1012   -1.3251   -1.4637 H         1 <0>         0.0000
     23 H9          0.6674    1.0470   -1.9002 H         1 <0>         0.0000
     24 H10         5.1942   -1.3928    0.5651 H         1 <0>         0.0000
     25 H11        -1.7408    0.8497   -1.4565 H         1 <0>         0.0000
     26 H12        -1.0885    2.1325   -0.6770 H         1 <0>         0.0000
     27 H13        -0.8874   -2.0095   -2.5673 H         1 <0>         0.0000
@<TRIPOS>BOND
     1    1    2 ar
     2    1    7 ar
     3    1   15 1
     4    2   11 ar
     5    2   16 1
     6    3    5 ar
     7    3   11 ar
     8    3   17 1
     9    4    6 2
    10    4   12 1
    11    4   18 1
    12    5    6 1
    13    5    7 ar
    14    6    8 1
    15    7   12 1
    16    8   10 1
    17    8   19 1
    18    8   20 1
    19    9   10 1
    20    9   14 1
    21    9   21 1
    22    9   22 1
    23   10   13 1
    24   10   23 1
    25   12   24 1
    26   13   25 1
    27   13   26 1
    28   14   27 1
