@<TRIPOS>MOLECULE
*****
   39    41     0     0     0
SMALL
NO_CHARGES

@<TRIPOS>ATOM
      1 C1          1.1603    0.5865   -6.1138 C.ar      1 <0>         0.0000
      2 C2          2.0079    1.2420   -5.2129 C.ar      1 <0>         0.0000
      3 C3         -0.1172    0.1765   -5.7154 C.ar      1 <0>         0.0000
      4 C4          1.5851    1.4838   -3.9034 C.ar      1 <0>         0.0000
      5 C5         -0.5523    0.4127   -4.4087 C.ar      1 <0>         0.0000
      6 C6         -3.0519    0.7077    1.6962 C.2       1 <0>         0.0000
      7 C7         -2.2162   -0.9505    0.7077 C.2       1 <0>         0.0000
      8 C8          0.3112    1.0574   -3.5200 C.ar      1 <0>         0.0000
      9 C9          0.8180   -1.2585    1.2379 C.2       1 <0>         0.0000
     10 C10         0.4731   -2.3818    3.4776 C.3       1 <0>         0.0000
     11 C11         1.9481   -2.2335    3.2923 C.3       1 <0>         0.0000
     12 C12         1.0243   -1.1659    2.7118 C.3       1 <0>         0.0000
     13 C13         0.9731    0.1922    3.3916 C.3       1 <0>         0.0000
     14 C14         0.3456   -0.1692   -0.9885 C.3       1 <0>         0.0000
     15 C15         0.1563   -0.0537    0.5227 C.3       1 <0>         0.0000
     16 N1         -3.3709   -0.5247    1.1945 N.2       1 <0>         0.0000
     17 N2         -1.7812    1.0603    1.5531 N.2       1 <0>         0.0000
     18 N3         -1.2497   -0.0196    0.9107 N.pl3     1 <0>         0.0000
     19 O1          1.0850   -2.2614    0.5875 O.2       1 <0>         0.0000
     20 O2          0.5422    2.4600   -1.2721 O.2       1 <0>         0.0000
     21 O3         -1.7055    1.3418   -1.8182 O.2       1 <0>         0.0000
     22 S1         -0.2357    1.3410   -1.8312 S.o2      1 <0>         0.0000
     23 H1          1.4930    0.4029   -7.1319 H         1 <0>         0.0000
     24 H2          2.9927    1.5719   -5.5318 H         1 <0>         0.0000
     25 H3         -0.7768   -0.3185   -6.4226 H         1 <0>         0.0000
     26 H4          2.2149    2.0126   -3.1942 H         1 <0>         0.0000
     27 H5         -1.5484    0.1272   -4.0839 H         1 <0>         0.0000
     28 H6         -3.7705    1.3600    2.1748 H         1 <0>         0.0000
     29 H7         -2.0341   -1.8965    0.2145 H         1 <0>         0.0000
     30 H8         -0.0373   -3.1377    2.8898 H         1 <0>         0.0000
     31 H9          0.0339   -2.1662    4.4470 H         1 <0>         0.0000
     32 H10         2.5498   -1.9231    4.1411 H         1 <0>         0.0000
     33 H11         2.4336   -2.8927    2.5809 H         1 <0>         0.0000
     34 H12         1.1407    0.0722    4.4660 H         1 <0>         0.0000
     35 H13         0.0100    0.6905    3.2584 H         1 <0>         0.0000
     36 H14         1.7594    0.8561    3.0145 H         1 <0>         0.0000
     37 H15        -0.1889   -1.0193   -1.4131 H         1 <0>         0.0000
     38 H16         1.4072   -0.2680   -1.2225 H         1 <0>         0.0000
     39 H17         0.5839    0.8855    0.8764 H         1 <0>         0.0000
@<TRIPOS>BOND
     1    1    3 ar
     2    1    2 ar
     3    1   23 1
     4    2    4 ar
     5    2   24 1
     6    3    5 ar
     7    3   25 1
     8    4    8 ar
     9    4   26 1
    10    5    8 ar
    11    5   27 1
    12    6   16 1
    13    6   17 2
    14    6   28 1
    15    7   16 2
    16    7   18 1
    17    7   29 1
    18    8   22 1
    19    9   12 1
    20    9   15 1
    21    9   19 2
    22   10   11 1
    23   10   12 1
    24   10   30 1
    25   10   31 1
    26   11   12 1
    27   11   32 1
    28   11   33 1
    29   12   13 1
    30   13   34 1
    31   13   35 1
    32   13   36 1
    33   14   15 1
    34   14   22 1
    35   14   37 1
    36   14   38 1
    37   15   18 1
    38   15   39 1
    39   17   18 1
    40   20   22 2
    41   21   22 2
