@<TRIPOS>MOLECULE
*****
   42    44     0     0     0
SMALL
NO_CHARGES

@<TRIPOS>ATOM
      1 C1          5.2839    5.1839   -0.7676 C.2       1 <0>         0.0000
      2 C2          4.1192    4.8494   -1.4262 C.2       1 <0>         0.0000
      3 C3          3.9290    7.0327   -1.5084 C.2       1 <0>         0.0000
      4 C4          3.6886    3.4521   -1.6843 C.2       1 <0>         0.0000
      5 C5          0.3930    0.3857   -4.4143 C.3       1 <0>         0.0000
      6 C6          1.9192    0.3389   -4.4239 C.3       1 <0>         0.0000
      7 C7         -0.1503    0.8515   -3.0655 C.3       1 <0>         0.0000
      8 C8          2.5243    1.6753   -4.0063 C.3       1 <0>         0.0000
      9 C9          0.4549    2.1878   -2.6480 C.3       1 <0>         0.0000
     10 C10         3.2610    8.6871   -3.3136 C.3       1 <0>         0.0000
     11 C11         2.0241    8.6641   -1.1176 C.3       1 <0>         0.0000
     12 C12         2.6593   10.0671   -3.5798 C.3       1 <0>         0.0000
     13 C13         1.4726   10.0453   -1.4722 C.3       1 <0>         0.0000
     14 C14         3.3766    8.4175   -1.8049 C.3       1 <0>         0.0000
     15 C15         1.9823    2.1401   -2.6554 C.3       1 <0>         0.0000
     16 N1          3.3408    5.9082   -1.8513 N.2       1 <0>         0.0000
     17 N2          1.3624   10.2229   -2.9205 N.3       1 <0>         0.0000
     18 O1          4.3338    2.4766   -1.3327 O.2       1 <0>         0.0000
     19 O2          2.5020    3.4298   -2.3502 O.3       1 <0>         0.0000
     20 S1          5.4212    6.8908   -0.6727 S.3       1 <0>         0.0000
     21 H1          6.0395    4.5332   -0.3504 H         1 <0>         0.0000
     22 H2         -0.0081   -0.6062   -4.6509 H         1 <0>         0.0000
     23 H3          0.0449    1.0663   -5.2012 H         1 <0>         0.0000
     24 H4          2.2639   -0.4466   -3.7402 H         1 <0>         0.0000
     25 H5          2.2736    0.0703   -5.4253 H         1 <0>         0.0000
     26 H6         -1.2413    0.9399   -3.1174 H         1 <0>         0.0000
     27 H7          0.0736    0.0960   -2.3023 H         1 <0>         0.0000
     28 H8          3.6171    1.5950   -3.9613 H         1 <0>         0.0000
     29 H9          2.3139    2.4356   -4.7699 H         1 <0>         0.0000
     30 H10         0.1060    2.9814   -3.3218 H         1 <0>         0.0000
     31 H11         0.0974    2.4688   -1.6500 H         1 <0>         0.0000
     32 H12         2.6357    7.9190   -3.7883 H         1 <0>         0.0000
     33 H13         4.2489    8.6213   -3.7853 H         1 <0>         0.0000
     34 H14         2.1333    8.5820   -0.0296 H         1 <0>         0.0000
     35 H15         1.3008    7.8944   -1.4187 H         1 <0>         0.0000
     36 H16         3.3453   10.8537   -3.2430 H         1 <0>         0.0000
     37 H17         2.5273   10.2051   -4.6585 H         1 <0>         0.0000
     38 H18         0.4807   10.1676   -1.0238 H         1 <0>         0.0000
     39 H19         2.1094   10.8308   -1.0479 H         1 <0>         0.0000
     40 H20         4.1105    9.1452   -1.3840 H         1 <0>         0.0000
     41 H21         2.3260    1.4502   -1.8668 H         1 <0>         0.0000
     42 H22         0.7176    9.5242   -3.2908 H         1 <0>         0.0000
@<TRIPOS>BOND
     1    1    2 2
     2    1   20 1
     3    1   21 1
     4    2    4 1
     5    2   16 1
     6    3   14 1
     7    3   16 2
     8    3   20 1
     9    4   18 2
    10    4   19 1
    11    5    7 1
    12    5    6 1
    13    5   22 1
    14    5   23 1
    15    6    8 1
    16    6   24 1
    17    6   25 1
    18    7    9 1
    19    7   26 1
    20    7   27 1
    21    8   15 1
    22    8   28 1
    23    8   29 1
    24    9   15 1
    25    9   30 1
    26    9   31 1
    27   10   12 1
    28   10   14 1
    29   10   32 1
    30   10   33 1
    31   11   13 1
    32   11   14 1
    33   11   34 1
    34   11   35 1
    35   12   17 1
    36   12   36 1
    37   12   37 1
    38   13   17 1
    39   13   38 1
    40   13   39 1
    41   14   40 1
    42   15   19 1
    43   15   41 1
    44   17   42 1
