@<TRIPOS>MOLECULE
*****
   14    14     0     0     0
SMALL
NO_CHARGES

@<TRIPOS>ATOM
      1 C1         -0.2528    0.8087   -2.0577 C.2       1 <0>         0.0000
      2 C2         -0.4682   -0.0882   -0.9718 C.2       1 <0>         0.0000
      3 C3         -0.9783    0.4538   -3.1737 C.2       1 <0>         0.0000
      4 C4         -1.3504   -1.0945   -1.2990 C.2       1 <0>         0.0000
      5 C5         -1.8169   -2.1736   -0.4902 C.2       1 <0>         0.0000
      6 C6         -1.3083   -2.2809    0.9317 C.3       1 <0>         0.0000
      7 O1         -2.6178   -3.0636   -0.8449 O.2       1 <0>         0.0000
      8 S1         -1.9146   -0.9556   -2.9098 S.3       1 <0>         0.0000
      9 H1          0.4020    1.6696   -2.0225 H         1 <0>         0.0000
     10 H2          0.0028    0.0050   -0.0012 H         1 <0>         0.0000
     11 H3         -1.0025    0.9543   -4.1314 H         1 <0>         0.0000
     12 H4         -1.9321   -1.7399    1.6607 H         1 <0>         0.0000
     13 H5         -0.2758   -1.9158    1.0454 H         1 <0>         0.0000
     14 H6         -1.2806   -3.3128    1.3247 H         1 <0>         0.0000
@<TRIPOS>BOND
     1    1    2 1
     2    1    3 2
     3    1    9 1
     4    2    4 2
     5    2   10 1
     6    3    8 1
     7    3   11 1
     8    4    5 1
     9    4    8 1
    10    5    6 1
    11    5    7 2
    12    6   12 1
    13    6   13 1
    14    6   14 1
