@<TRIPOS>MOLECULE
*****
   26    26     0     0     0
SMALL
NO_CHARGES

@<TRIPOS>ATOM
      1 C1          5.0098   -0.8879    3.0426 C.2       1 <0>         0.0000
      2 C2          5.2820   -0.4636    4.3753 C.2       1 <0>         0.0000
      3 C3          3.8858   -0.2819    2.5259 C.2       1 <0>         0.0000
      4 C4          4.3555    0.4508    4.8264 C.2       1 <0>         0.0000
      5 C5          4.2764    1.1315    6.1390 C.3       1 <0>         0.0000
      6 C6          0.7426   -0.1852   -0.5284 C.3       1 <0>         0.0000
      7 C7          0.6340   -2.6765   -0.1711 C.3       1 <0>         0.0000
      8 C8          3.2697   -0.4579    1.1682 C.3       1 <0>         0.0000
      9 C9          1.5179   -1.4380   -0.1475 C.3       1 <0>         0.0000
     10 N1          2.0725   -1.2697    1.2178 N.3       1 <0>         0.0000
     11 S1          3.1638    0.7939    3.6456 S.3       1 <0>         0.0000
     12 Br1         6.7566   -1.1188    5.3493 Br        1 <0>         0.0000
     13 H1          5.6048   -1.6015    2.4854 H         1 <0>         0.0000
     14 H2          4.8360    2.0792    6.1242 H         1 <0>         0.0000
     15 H3          3.2356    1.3568    6.4210 H         1 <0>         0.0000
     16 H4          4.6874    0.5077    6.9488 H         1 <0>         0.0000
     17 H5         -0.1020   -0.0278    0.1503 H         1 <0>         0.0000
     18 H6          1.3796    0.7057   -0.4929 H         1 <0>         0.0000
     19 H7          0.3481   -0.2671   -1.5472 H         1 <0>         0.0000
     20 H8         -0.2131   -2.5619    0.5141 H         1 <0>         0.0000
     21 H9          1.1983   -3.5641    0.1330 H         1 <0>         0.0000
     22 H10         0.2256   -2.8579   -1.1716 H         1 <0>         0.0000
     23 H11         3.0013    0.5128    0.7372 H         1 <0>         0.0000
     24 H12         3.9711   -0.9376    0.4775 H         1 <0>         0.0000
     25 H13         2.3566   -1.5752   -0.8388 H         1 <0>         0.0000
     26 H14         2.2846   -2.1895    1.5805 H         1 <0>         0.0000
@<TRIPOS>BOND
     1    1    2 1
     2    1    3 2
     3    1   13 1
     4    2    4 2
     5    2   12 1
     6    3    8 1
     7    3   11 1
     8    4    5 1
     9    4   11 1
    10    5   14 1
    11    5   15 1
    12    5   16 1
    13    6    9 1
    14    6   17 1
    15    6   18 1
    16    6   19 1
    17    7    9 1
    18    7   20 1
    19    7   21 1
    20    7   22 1
    21    8   10 1
    22    8   23 1
    23    8   24 1
    24    9   10 1
    25    9   25 1
    26   10   26 1
