@<TRIPOS>MOLECULE
*****
   39    39     0     0     0
SMALL
NO_CHARGES

@<TRIPOS>ATOM
      1 C1         -0.8457   -0.8425    0.1562 C.3       1 <0>         0.0000
      2 C2         -1.2932   -1.9258    1.1473 C.3       1 <0>         0.0000
      3 C3          0.0666    0.0776    0.9814 C.3       1 <0>         0.0000
      4 C4         -0.0351   -2.2167    1.9630 C.3       1 <0>         0.0000
      5 C5         -0.2046   -2.9246    3.3015 C.3       1 <0>         0.0000
      6 C6          1.1150   -3.0852    4.0749 C.3       1 <0>         0.0000
      7 C7          4.1857   -3.4641    7.9748 C.3       1 <0>         0.0000
      8 C8          4.3121   -2.5285    9.1833 C.3       1 <0>         0.0000
      9 C9          1.0118   -4.1114    5.2018 C.3       1 <0>         0.0000
     10 C10         2.8005   -3.3263    7.3385 C.3       1 <0>         0.0000
     11 C11         5.6934   -2.5774    9.8078 C.3       1 <0>         0.0000
     12 N1          0.5681   -0.8056    2.1384 N.4       1 <0>         0.0000
     13 O1          3.6678   -4.1019    4.9313 O.2       1 <0>         0.0000
     14 O2          2.5937   -5.8444    6.4740 O.2       1 <0>         0.0000
     15 F1          5.7715   -1.7489   10.8743 F         1 <0>         0.0000
     16 F2          6.0106   -3.8228   10.2335 F         1 <0>         0.0000
     17 F3          6.6529   -2.1956    8.9268 F         1 <0>         0.0000
     18 S1          2.6571   -4.4802    5.9375 S.o2      1 <0>         0.0000
     19 H1         -0.2873   -1.2884   -0.6712 H         1 <0>         0.0000
     20 H2         -1.6813   -0.2838   -0.2683 H         1 <0>         0.0000
     21 H3         -2.0950   -1.5624    1.8003 H         1 <0>         0.0000
     22 H4         -1.6514   -2.8293    0.6503 H         1 <0>         0.0000
     23 H5          0.9307    0.4592    0.4386 H         1 <0>         0.0000
     24 H6         -0.4696    0.9147    1.4285 H         1 <0>         0.0000
     25 H7          0.6925   -2.7511    1.3447 H         1 <0>         0.0000
     26 H8         -0.9611   -2.4064    3.9055 H         1 <0>         0.0000
     27 H9         -0.6226   -3.9108    3.0722 H         1 <0>         0.0000
     28 H10         1.4376   -2.1214    4.4913 H         1 <0>         0.0000
     29 H11         1.9115   -3.4123    3.3987 H         1 <0>         0.0000
     30 H12         4.9518   -3.2246    7.2331 H         1 <0>         0.0000
     31 H13         4.3405   -4.4991    8.2900 H         1 <0>         0.0000
     32 H14         4.1304   -1.4868    8.9014 H         1 <0>         0.0000
     33 H15         3.5957   -2.7934    9.9663 H         1 <0>         0.0000
     34 H16         0.3421   -3.8087    6.0120 H         1 <0>         0.0000
     35 H17         0.6791   -5.0855    4.8313 H         1 <0>         0.0000
     36 H18         2.0003   -3.5884    8.0369 H         1 <0>         0.0000
     37 H19         2.6338   -2.3180    6.9453 H         1 <0>         0.0000
     38 H20         1.5910   -0.8446    2.1771 H         1 <0>         0.0000
     39 H21         0.2625   -0.4158    3.0351 H         1 <0>         0.0000
@<TRIPOS>BOND
     1    1    2 1
     2    1    3 1
     3    1   19 1
     4    1   20 1
     5    2    4 1
     6    2   21 1
     7    2   22 1
     8    3   12 1
     9    3   23 1
    10    3   24 1
    11    4    5 1
    12    4   12 1
    13    4   25 1
    14    5    6 1
    15    5   26 1
    16    5   27 1
    17    6    9 1
    18    6   28 1
    19    6   29 1
    20    7    8 1
    21    7   10 1
    22    7   30 1
    23    7   31 1
    24    8   11 1
    25    8   32 1
    26    8   33 1
    27    9   18 1
    28    9   34 1
    29    9   35 1
    30   10   18 1
    31   10   36 1
    32   10   37 1
    33   11   15 1
    34   11   16 1
    35   11   17 1
    36   12   38 1
    37   12   39 1
    38   13   18 2
    39   14   18 2
