@<TRIPOS>MOLECULE
*****
   27    27     0     0     0
SMALL
NO_CHARGES

@<TRIPOS>ATOM
      1 C1          0.8879   -0.6658   -0.9017 C.2       1 <0>         0.0000
      2 C2          1.4636    1.4737    0.2521 C.2       1 <0>         0.0000
      3 C3         -0.3472   -1.0409    1.2204 C.3       1 <0>         0.0000
      4 C4          1.8058   -0.0010    0.1423 C.3       1 <0>         0.0000
      5 C5         -0.3438   -1.3310   -0.2847 C.3       1 <0>         0.0000
      6 C6         -2.8679   -1.6667   -0.5345 C.3       1 <0>         0.0000
      7 C7          3.6585    4.2944    0.9595 C.3       1 <0>         0.0000
      8 C8         -1.6282   -0.9057   -1.0153 C.3       1 <0>         0.0000
      9 C9          2.3137    3.6431    0.6999 C.3       1 <0>         0.0000
     10 O1          1.1547   -0.6714   -2.0853 O.2       1 <0>         0.0000
     11 O2          0.3304    1.9119    0.1470 O.2       1 <0>         0.0000
     12 O3          2.5513    2.2194    0.5050 O.3       1 <0>         0.0000
     13 S1          1.4163   -0.8423    1.7266 S.3       1 <0>         0.0000
     14 H1         -0.8912   -0.1207    1.4448 H         1 <0>         0.0000
     15 H2         -0.7672   -1.8584    1.8088 H         1 <0>         0.0000
     16 H3          2.8551   -0.1435   -0.1159 H         1 <0>         0.0000
     17 H4         -0.1886   -2.4084   -0.4340 H         1 <0>         0.0000
     18 H5         -2.7466   -2.7479   -0.6694 H         1 <0>         0.0000
     19 H6         -3.7547   -1.3576   -1.0972 H         1 <0>         0.0000
     20 H7         -3.0718   -1.4831    0.5260 H         1 <0>         0.0000
     21 H8          4.1310    3.8746    1.8521 H         1 <0>         0.0000
     22 H9          4.3323    4.1526    0.1096 H         1 <0>         0.0000
     23 H10         3.5208    5.3693    1.1148 H         1 <0>         0.0000
     24 H11        -1.7654    0.1723   -0.8752 H         1 <0>         0.0000
     25 H12        -1.4767   -1.0703   -2.0868 H         1 <0>         0.0000
     26 H13         1.8274    4.0376   -0.1961 H         1 <0>         0.0000
     27 H14         1.6254    3.7636    1.5410 H         1 <0>         0.0000
@<TRIPOS>BOND
     1    1    4 1
     2    1    5 1
     3    1   10 2
     4    2    4 1
     5    2   11 2
     6    2   12 1
     7    3    5 1
     8    3   13 1
     9    3   14 1
    10    3   15 1
    11    4   13 1
    12    4   16 1
    13    5    8 1
    14    5   17 1
    15    6    8 1
    16    6   18 1
    17    6   19 1
    18    6   20 1
    19    7    9 1
    20    7   21 1
    21    7   22 1
    22    7   23 1
    23    8   24 1
    24    8   25 1
    25    9   12 1
    26    9   26 1
    27    9   27 1
