@<TRIPOS>MOLECULE
*****
   35    36     0     0     0
SMALL
NO_CHARGES

@<TRIPOS>ATOM
      1 C1         -2.3326   -2.6561    5.4298 C.ar      1 <0>         0.0000
      2 C2         -1.9764   -3.9209    4.9780 C.ar      1 <0>         0.0000
      3 C3         -2.3909   -1.5538    4.5628 C.ar      1 <0>         0.0000
      4 C4         -1.7675   -3.0508    2.6939 C.ar      1 <0>         0.0000
      5 C5         -1.6907   -4.1141    3.6199 C.ar      1 <0>         0.0000
      6 C6         -2.1190   -1.7923    3.2089 C.ar      1 <0>         0.0000
      7 C7         -2.7209   -0.1658    5.1451 C.2       1 <0>         0.0000
      8 C8         -2.4550   -1.9767   -1.4906 C.3       1 <0>         0.0000
      9 C9         -3.8959   -1.4991   -1.6665 C.3       1 <0>         0.0000
     10 C10        -4.0440   -3.7936   -1.4133 C.3       1 <0>         0.0000
     11 C11        -2.6662   -3.3688   -0.8614 C.3       1 <0>         0.0000
     12 C12         0.6659   -5.5575    3.0527 C.3       1 <0>         0.0000
     13 C13        -1.5150   -3.2186    1.2150 C.3       1 <0>         0.0000
     14 O1         -1.7070    0.5465    5.3426 O.co2     1 <0>         0.0000
     15 O2         -3.9384    0.0250    5.3716 O.co2     1 <0>         0.0000
     16 O3         -1.3650   -6.6567    4.3296 O.2       1 <0>         0.0000
     17 O4         -1.6158   -6.1702    1.8445 O.2       1 <0>         0.0000
     18 O5         -4.6050   -2.6666   -2.1062 O.3       1 <0>         0.0000
     19 O6         -2.7770   -3.3089    0.5557 O.3       1 <0>         0.0000
     20 S1         -1.1330   -5.7637    3.1779 S.o2      1 <0>         0.0000
     21 Cl1        -2.2330   -0.4198    2.0990 Cl        1 <0>         0.0000
     22 H1         -2.5719   -2.5008    6.4784 H         1 <0>         0.0000
     23 H2         -1.9244   -4.7661    5.6562 H         1 <0>         0.0000
     24 H3         -1.9658   -2.0719   -2.4671 H         1 <0>         0.0000
     25 H4         -1.8588   -1.3198   -0.8540 H         1 <0>         0.0000
     26 H5         -4.2994   -1.1358   -0.7115 H         1 <0>         0.0000
     27 H6         -4.0250   -0.7277   -2.4306 H         1 <0>         0.0000
     28 H7         -3.9756   -4.6214   -2.1260 H         1 <0>         0.0000
     29 H8         -4.6803   -4.0901   -0.5719 H         1 <0>         0.0000
     30 H9         -1.8762   -4.0803   -1.1387 H         1 <0>         0.0000
     31 H10         1.0727   -6.5396    2.8006 H         1 <0>         0.0000
     32 H11         0.8939   -4.8334    2.2693 H         1 <0>         0.0000
     33 H12         1.0408   -5.2158    4.0182 H         1 <0>         0.0000
     34 H13        -0.9497   -2.3532    0.8493 H         1 <0>         0.0000
     35 H14        -0.9405   -4.1231    0.9971 H         1 <0>         0.0000
@<TRIPOS>BOND
     1    1    2 ar
     2    1    3 ar
     3    1   22 1
     4    2    5 ar
     5    2   23 1
     6    3    6 ar
     7    3    7 1
     8    4    5 ar
     9    4    6 ar
    10    4   13 1
    11    5   20 1
    12    6   21 1
    13    7   14 1
    14    7   15 2
    15    8    9 1
    16    8   11 1
    17    8   24 1
    18    8   25 1
    19    9   18 1
    20    9   26 1
    21    9   27 1
    22   10   11 1
    23   10   18 1
    24   10   28 1
    25   10   29 1
    26   11   19 1
    27   11   30 1
    28   12   20 1
    29   12   31 1
    30   12   32 1
    31   12   33 1
    32   13   19 1
    33   13   34 1
    34   13   35 1
    35   16   20 2
    36   17   20 2
