@<TRIPOS>MOLECULE
*****
   35    36     0     0     0
SMALL
NO_CHARGES

@<TRIPOS>ATOM
      1 C1         -2.2147   -3.2650    5.5222 C.ar      1 <0>         0.0000
      2 C2         -1.9681   -4.4122    4.7777 C.ar      1 <0>         0.0000
      3 C3         -2.4394   -2.0239    4.9077 C.ar      1 <0>         0.0000
      4 C4         -2.1085   -3.1018    2.7063 C.ar      1 <0>         0.0000
      5 C5         -1.9231   -4.3304    3.3802 C.ar      1 <0>         0.0000
      6 C6         -2.3592   -1.9767    3.5077 C.ar      1 <0>         0.0000
      7 C7         -2.7797   -0.8106    5.7936 C.2       1 <0>         0.0000
      8 C8          1.2275   -2.7631   -0.5667 C.3       1 <0>         0.0000
      9 C9          1.2289   -1.3065   -1.0289 C.3       1 <0>         0.0000
     10 C10        -0.8752   -2.1630   -1.5526 C.3       1 <0>         0.0000
     11 C11        -0.2713   -3.0487   -0.4386 C.3       1 <0>         0.0000
     12 C12        -3.4122   -6.3046    2.0212 C.3       1 <0>         0.0000
     13 C13        -2.0098   -2.9743    1.2037 C.3       1 <0>         0.0000
     14 O1         -1.7935   -0.2931    6.3679 O.co2     1 <0>         0.0000
     15 O2         -4.0075   -0.5558    5.8374 O.co2     1 <0>         0.0000
     16 O3         -0.9214   -5.7577    1.2926 O.2       1 <0>         0.0000
     17 O4         -1.3270   -6.9195    3.5180 O.2       1 <0>         0.0000
     18 O5          0.1317   -1.2159   -1.9526 O.3       1 <0>         0.0000
     19 O6         -0.6624   -2.6374    0.8677 O.3       1 <0>         0.0000
     20 S1         -1.7179   -5.8971    2.5282 S.o2      1 <0>         0.0000
     21 Cl1        -2.5702   -0.4041    2.7304 Cl        1 <0>         0.0000
     22 H1         -2.2371   -3.3150    6.6076 H         1 <0>         0.0000
     23 H2         -1.8014   -5.3697    5.2597 H         1 <0>         0.0000
     24 H3          1.6664   -3.4072   -1.3361 H         1 <0>         0.0000
     25 H4          1.7373   -2.9335    0.3834 H         1 <0>         0.0000
     26 H5          1.0698   -0.6288   -0.1795 H         1 <0>         0.0000
     27 H6          2.1347   -1.0070   -1.5645 H         1 <0>         0.0000
     28 H7         -1.1549   -2.7510   -2.4357 H         1 <0>         0.0000
     29 H8         -1.7609   -1.6290   -1.1889 H         1 <0>         0.0000
     30 H9         -0.5128   -4.1097   -0.5678 H         1 <0>         0.0000
     31 H10        -3.3585   -7.2651    1.5037 H         1 <0>         0.0000
     32 H11        -4.0292   -6.3779    2.9177 H         1 <0>         0.0000
     33 H12        -3.7884   -5.5274    1.3547 H         1 <0>         0.0000
     34 H13        -2.2796   -3.9114    0.7098 H         1 <0>         0.0000
     35 H14        -2.6953   -2.1952    0.8547 H         1 <0>         0.0000
@<TRIPOS>BOND
     1    1    2 ar
     2    1    3 ar
     3    1   22 1
     4    2    5 ar
     5    2   23 1
     6    3    6 ar
     7    3    7 1
     8    4    5 ar
     9    4    6 ar
    10    4   13 1
    11    5   20 1
    12    6   21 1
    13    7   14 1
    14    7   15 2
    15    8    9 1
    16    8   11 1
    17    8   24 1
    18    8   25 1
    19    9   18 1
    20    9   26 1
    21    9   27 1
    22   10   11 1
    23   10   18 1
    24   10   28 1
    25   10   29 1
    26   11   19 1
    27   11   30 1
    28   12   20 1
    29   12   31 1
    30   12   32 1
    31   12   33 1
    32   13   19 1
    33   13   34 1
    34   13   35 1
    35   16   20 2
    36   17   20 2
