@<TRIPOS>MOLECULE
*****
   35    36     0     0     0
SMALL
NO_CHARGES

@<TRIPOS>ATOM
      1 C1         -1.2533   -2.9622    5.7575 C.ar      1 <0>         0.0000
      2 C2         -0.9083   -4.0961    5.0314 C.ar      1 <0>         0.0000
      3 C3         -1.5720   -1.7538    5.1218 C.ar      1 <0>         0.0000
      4 C4         -1.2255   -2.8602    2.9350 C.ar      1 <0>         0.0000
      5 C5         -0.8911   -4.0447    3.6327 C.ar      1 <0>         0.0000
      6 C6         -1.5462   -1.7401    3.7187 C.ar      1 <0>         0.0000
      7 C7         -1.9259   -0.5291    5.9863 C.2       1 <0>         0.0000
      8 C8         -0.2749   -4.0534   -1.2145 C.3       1 <0>         0.0000
      9 C9          0.9846   -4.9321   -1.1523 C.3       1 <0>         0.0000
     10 C10         1.6390   -2.7021   -0.8604 C.3       1 <0>         0.0000
     11 C11         0.1597   -2.7631   -0.4943 C.3       1 <0>         0.0000
     12 C12         1.4376   -5.2154    2.5142 C.3       1 <0>         0.0000
     13 C13        -1.2665   -2.8124    1.4269 C.3       1 <0>         0.0000
     14 O1         -0.9299    0.1418    6.3481 O.co2     1 <0>         0.0000
     15 O2         -3.1501   -0.4123    6.2295 O.co2     1 <0>         0.0000
     16 O3         -0.3670   -6.6433    3.8127 O.2       1 <0>         0.0000
     17 O4         -0.9743   -5.7459    1.5173 O.2       1 <0>         0.0000
     18 O5          2.1017   -4.0566   -0.8795 O.3       1 <0>         0.0000
     19 O6          0.0778   -2.8435    0.9236 O.3       1 <0>         0.0000
     20 S1         -0.3122   -5.5456    2.8253 S.o2      1 <0>         0.0000
     21 Cl1        -1.9413   -0.2047    2.9270 Cl        1 <0>         0.0000
     22 H1         -1.2741   -2.9976    6.8435 H         1 <0>         0.0000
     23 H2         -0.6608   -5.0272    5.5304 H         1 <0>         0.0000
     24 H3         -0.5426   -3.8130   -2.2496 H         1 <0>         0.0000
     25 H4         -1.1264   -4.5386   -0.7375 H         1 <0>         0.0000
     26 H5          0.9134   -5.6620   -0.3423 H         1 <0>         0.0000
     27 H6          1.1699   -5.4631   -2.0945 H         1 <0>         0.0000
     28 H7          1.7676   -2.2359   -1.8501 H         1 <0>         0.0000
     29 H8          2.2195   -2.1458   -0.1204 H         1 <0>         0.0000
     30 H9         -0.3922   -1.8803   -0.8487 H         1 <0>         0.0000
     31 H10         1.8458   -6.1259    2.0694 H         1 <0>         0.0000
     32 H11         1.5200   -4.3686    1.8352 H         1 <0>         0.0000
     33 H12         1.9128   -5.0104    3.4748 H         1 <0>         0.0000
     34 H13        -1.8272   -3.6716    1.0529 H         1 <0>         0.0000
     35 H14        -1.7548   -1.8940    1.0920 H         1 <0>         0.0000
@<TRIPOS>BOND
     1    1    2 ar
     2    1    3 ar
     3    1   22 1
     4    2    5 ar
     5    2   23 1
     6    3    6 ar
     7    3    7 1
     8    4    5 ar
     9    4    6 ar
    10    4   13 1
    11    5   20 1
    12    6   21 1
    13    7   14 1
    14    7   15 2
    15    8    9 1
    16    8   11 1
    17    8   24 1
    18    8   25 1
    19    9   18 1
    20    9   26 1
    21    9   27 1
    22   10   11 1
    23   10   18 1
    24   10   28 1
    25   10   29 1
    26   11   19 1
    27   11   30 1
    28   12   20 1
    29   12   31 1
    30   12   32 1
    31   12   33 1
    32   13   19 1
    33   13   34 1
    34   13   35 1
    35   16   20 2
    36   17   20 2
