@<TRIPOS>MOLECULE
*****
   35    35     0     0     0
SMALL
NO_CHARGES

@<TRIPOS>ATOM
      1 C1         -0.7750    0.1085   -0.1069 C.1       1 <0>         0.0000
      2 C2         -1.7395    0.6191   -0.6418 C.1       1 <0>         0.0000
      3 C3          1.3402   -1.1458   -0.2365 C.ar      1 <0>         0.0000
      4 C4          0.5165   -0.4363    1.9198 C.ar      1 <0>         0.0000
      5 C5          0.3617   -0.4913    0.5236 C.ar      1 <0>         0.0000
      6 C6          2.4562   -1.7355    0.3657 C.ar      1 <0>         0.0000
      7 C7          1.6164   -1.0169    2.5505 C.ar      1 <0>         0.0000
      8 C8          2.5947   -1.6745    1.7674 C.ar      1 <0>         0.0000
      9 C9          4.8825   -1.3039    2.8519 C.2       1 <0>         0.0000
     10 C10        -2.9004    1.2375   -1.2865 C.3       1 <0>         0.0000
     11 C11         4.6920   -1.4508   -0.8213 C.3       1 <0>         0.0000
     12 C12         0.6883   -0.1739    4.8201 C.3       1 <0>         0.0000
     13 C13         3.7891   -2.2985    2.4507 C.3       1 <0>         0.0000
     14 C14         3.4931   -2.3743   -0.5389 C.3       1 <0>         0.0000
     15 C15         1.7738   -0.9418    4.0610 C.3       1 <0>         0.0000
     16 O1          4.8642   -0.1148    2.6529 O.2       1 <0>         0.0000
     17 O2          5.9534   -1.8728    3.4883 O.3       1 <0>         0.0000
     18 H1          1.2260   -1.1903   -1.3163 H         1 <0>         0.0000
     19 H2         -0.2435    0.0740    2.4996 H         1 <0>         0.0000
     20 H3         -3.1241    2.2118   -0.8390 H         1 <0>         0.0000
     21 H4         -2.7191    1.3902   -2.3557 H         1 <0>         0.0000
     22 H5         -3.7904    0.6070   -1.1821 H         1 <0>         0.0000
     23 H6          4.3559   -0.5253   -1.2992 H         1 <0>         0.0000
     24 H7          5.4105   -1.9403   -1.4879 H         1 <0>         0.0000
     25 H8          5.2136   -1.1653    0.0959 H         1 <0>         0.0000
     26 H9          0.6345    0.8708    4.4978 H         1 <0>         0.0000
     27 H10         0.9109   -0.1785    5.8917 H         1 <0>         0.0000
     28 H11        -0.3011   -0.6230    4.6849 H         1 <0>         0.0000
     29 H12         4.2573   -3.0526    1.8114 H         1 <0>         0.0000
     30 H13         3.4816   -2.8284    3.3605 H         1 <0>         0.0000
     31 H14         3.8492   -3.3241   -0.1237 H         1 <0>         0.0000
     32 H15         3.0137   -2.6316   -1.4889 H         1 <0>         0.0000
     33 H16         1.8203   -1.9626    4.4653 H         1 <0>         0.0000
     34 H17         2.7434   -0.4843    4.2878 H         1 <0>         0.0000
     35 H18         5.8183   -2.8321    3.5738 H         1 <0>         0.0000
@<TRIPOS>BOND
     1    1    2 3
     2    1    5 1
     3    2   10 1
     4    3    5 ar
     5    3    6 ar
     6    3   18 1
     7    4    5 ar
     8    4    7 ar
     9    4   19 1
    10    6    8 ar
    11    6   14 1
    12    7    8 ar
    13    7   15 1
    14    8   13 1
    15    9   13 1
    16    9   16 2
    17    9   17 1
    18   10   20 1
    19   10   21 1
    20   10   22 1
    21   11   14 1
    22   11   23 1
    23   11   24 1
    24   11   25 1
    25   12   15 1
    26   12   26 1
    27   12   27 1
    28   12   28 1
    29   13   29 1
    30   13   30 1
    31   14   31 1
    32   14   32 1
    33   15   33 1
    34   15   34 1
    35   17   35 1
