@<TRIPOS>MOLECULE
*****
   29    29     0     0     0
SMALL
NO_CHARGES

@<TRIPOS>ATOM
      1 C1          0.5325    3.9616    5.0693 C.ar      1 <0>         0.0000
      2 C2         -0.7216    3.3788    4.8502 C.ar      1 <0>         0.0000
      3 C3          1.6811    3.1649    5.0449 C.ar      1 <0>         0.0000
      4 C4         -0.8281    2.0066    4.6142 C.ar      1 <0>         0.0000
      5 C5          1.5724    1.7911    4.8057 C.ar      1 <0>         0.0000
      6 C6          0.3211    1.2033    4.5930 C.ar      1 <0>         0.0000
      7 C7         -0.8532   -0.8975    5.2993 C.2       1 <0>         0.0000
      8 C8         -1.4641   -1.5276    7.5685 C.3       1 <0>         0.0000
      9 C9          0.8027   -0.6440    7.1627 C.3       1 <0>         0.0000
     10 C10        -0.1807   -1.7997    2.5313 C.3       1 <0>         0.0000
     11 C11         0.1901   -0.2841    4.3256 C.3       1 <0>         0.0000
     12 N1         -0.4534   -1.1216    6.5946 N.am      1 <0>         0.0000
     13 O1         -1.9907   -1.1536    4.9059 O.2       1 <0>         0.0000
     14 O2         -0.2050   -0.4475    2.9795 O.3       1 <0>         0.0000
     15 H1          0.6134    5.0297    5.2547 H         1 <0>         0.0000
     16 H2         -1.6166    3.9958    4.8626 H         1 <0>         0.0000
     17 H3          2.6588    3.6113    5.2072 H         1 <0>         0.0000
     18 H4         -1.7982    1.5500    4.4389 H         1 <0>         0.0000
     19 H5          2.4694    1.1756    4.7785 H         1 <0>         0.0000
     20 H6         -1.0639   -2.3233    8.2059 H         1 <0>         0.0000
     21 H7         -2.3423   -1.8897    7.0372 H         1 <0>         0.0000
     22 H8         -1.7561   -0.6813    8.2049 H         1 <0>         0.0000
     23 H9          0.7343    0.4010    7.4909 H         1 <0>         0.0000
     24 H10         1.6232   -0.7265    6.4510 H         1 <0>         0.0000
     25 H11         1.0525   -1.2656    8.0275 H         1 <0>         0.0000
     26 H12        -0.4084   -1.7739    1.4636 H         1 <0>         0.0000
     27 H13        -0.9307   -2.4073    3.0482 H         1 <0>         0.0000
     28 H14         0.8175   -2.2429    2.6729 H         1 <0>         0.0000
     29 H15         1.1656   -0.7705    4.4756 H         1 <0>         0.0000
@<TRIPOS>BOND
     1    1    3 ar
     2    1    2 ar
     3    1   15 1
     4    2    4 ar
     5    2   16 1
     6    3    5 ar
     7    3   17 1
     8    4    6 ar
     9    4   18 1
    10    5    6 ar
    11    5   19 1
    12    6   11 1
    13    7   11 1
    14    7   12 am
    15    7   13 2
    16    8   12 1
    17    8   20 1
    18    8   21 1
    19    8   22 1
    20    9   12 1
    21    9   23 1
    22    9   24 1
    23    9   25 1
    24   10   14 1
    25   10   26 1
    26   10   27 1
    27   10   28 1
    28   11   14 1
    29   11   29 1
