@<TRIPOS>MOLECULE
*****
   23    23     0     0     0
SMALL
NO_CHARGES

@<TRIPOS>ATOM
      1 C1         -2.0841    4.0204    1.9106 C.ar      1 <0>         0.0000
      2 C2         -0.8142    4.2024    2.4699 C.ar      1 <0>         0.0000
      3 C3         -2.6446    2.7404    1.8347 C.ar      1 <0>         0.0000
      4 C4         -0.0945    3.1044    2.9483 C.ar      1 <0>         0.0000
      5 C5         -1.9346    1.6346    2.3097 C.ar      1 <0>         0.0000
      6 C6         -0.6631    1.8303    2.8573 C.ar      1 <0>         0.0000
      7 C7          0.3477   -0.6455    0.9394 C.3       1 <0>         0.0000
      8 C8          2.2069    0.8399    1.5868 C.3       1 <0>         0.0000
      9 N1          1.1601   -0.0893    2.0277 N.pl3     1 <0>         0.0000
     10 O1          1.2795    0.8687    4.3665 O.2       1 <0>         0.0000
     11 O2         -0.6520   -0.6750    3.6934 O.2       1 <0>         0.0000
     12 S1          0.2900    0.4038    3.3939 S.o2      1 <0>         0.0000
     13 H1         -2.6415    4.8779    1.5433 H         1 <0>         0.0000
     14 H2         -0.3876    5.1990    2.5424 H         1 <0>         0.0000
     15 H3         -3.6373    2.6033    1.4147 H         1 <0>         0.0000
     16 H4          0.8807    3.2285    3.4084 H         1 <0>         0.0000
     17 H5         -2.3628    0.6376    2.2828 H         1 <0>         0.0000
     18 H6         -0.3684   -1.3578    1.3482 H         1 <0>         0.0000
     19 H7          1.0181   -1.1782    0.2594 H         1 <0>         0.0000
     20 H8         -0.1842    0.1330    0.3715 H         1 <0>         0.0000
     21 H9          2.7870    1.1688    2.4485 H         1 <0>         0.0000
     22 H10         1.7977    1.7141    1.0578 H         1 <0>         0.0000
     23 H11         2.8709    0.2987    0.9071 H         1 <0>         0.0000
@<TRIPOS>BOND
     1    1    3 ar
     2    1    2 ar
     3    1   13 1
     4    2    4 ar
     5    2   14 1
     6    3    5 ar
     7    3   15 1
     8    4    6 ar
     9    4   16 1
    10    5    6 ar
    11    5   17 1
    12    6   12 1
    13    7    9 1
    14    7   18 1
    15    7   19 1
    16    7   20 1
    17    8    9 1
    18    8   21 1
    19    8   22 1
    20    8   23 1
    21    9   12 1
    22   10   12 2
    23   11   12 2
