@<TRIPOS>MOLECULE
*****
   15    14     0     0     0
SMALL
NO_CHARGES

@<TRIPOS>ATOM
      1 C1         -3.4550    0.0252   -0.4171 C.2       1 <0>         0.0000
      2 C2         -0.9745   -0.4841   -0.5080 C.3       1 <0>         0.0000
      3 C3         -5.8629   -0.3807    0.0316 C.3       1 <0>         0.0000
      4 C4         -2.0911    0.2681    0.2245 C.3       1 <0>         0.0000
      5 N1         -4.4843   -0.1945    0.4604 N.am      1 <0>         0.0000
      6 O1         -3.6129    0.0408   -1.6377 O.2       1 <0>         0.0000
      7 H1         -1.1066   -1.5675   -0.4201 H         1 <0>         0.0000
      8 H2         -0.9836   -0.2297   -1.5702 H         1 <0>         0.0000
      9 H3          0.0037   -0.2244   -0.0911 H         1 <0>         0.0000
     10 H4         -6.4940    0.4620    0.3376 H         1 <0>         0.0000
     11 H5         -6.2770   -1.3056    0.4471 H         1 <0>         0.0000
     12 H6         -5.8647   -0.4455   -1.0568 H         1 <0>         0.0000
     13 H7         -1.9050    1.3476    0.1686 H         1 <0>         0.0000
     14 H8         -2.1038    0.0030    1.2883 H         1 <0>         0.0000
     15 H9         -4.2830   -0.1730    1.4504 H         1 <0>         0.0000
@<TRIPOS>BOND
     1    1    4 1
     2    1    5 am
     3    1    6 2
     4    2    4 1
     5    2    7 1
     6    2    8 1
     7    2    9 1
     8    3    5 1
     9    3   10 1
    10    3   11 1
    11    3   12 1
    12    4   13 1
    13    4   14 1
    14    5   15 1
