@<TRIPOS>MOLECULE
*****
   26    27     0     0     0
SMALL
NO_CHARGES

@<TRIPOS>ATOM
      1 C1         -0.2244   -0.7793    0.1403 C.ar      1 <0>         0.0000
      2 C2          0.6526   -1.8648    0.1082 C.ar      1 <0>         0.0000
      3 C3         -1.6035   -0.9953    0.1031 C.ar      1 <0>         0.0000
      4 C4         -1.2363   -3.3787    0.0107 C.ar      1 <0>         0.0000
      5 C5          0.1596   -3.1730    0.0483 C.ar      1 <0>         0.0000
      6 C6         -2.1332   -2.2907    0.0269 C.ar      1 <0>         0.0000
      7 C7         -1.7773   -4.7820   -0.0982 C.2       1 <0>         0.0000
      8 C8          1.1129   -4.3498    0.0177 C.3       1 <0>         0.0000
      9 C9          1.1121   -5.1678    1.3270 C.3       1 <0>         0.0000
     10 C10        -0.3151   -5.3827    1.8571 C.3       1 <0>         0.0000
     11 C11        -3.6312   -2.4846   -0.0330 C.3       1 <0>         0.0000
     12 N1         -1.2776   -5.6877    0.8014 N.am      1 <0>         0.0000
     13 O1         -2.6170   -5.1066   -0.9405 O.2       1 <0>         0.0000
     14 H1          0.1652    0.2344    0.1915 H         1 <0>         0.0000
     15 H2          1.7273   -1.6986    0.1268 H         1 <0>         0.0000
     16 H3         -2.2826   -0.1465    0.1296 H         1 <0>         0.0000
     17 H4          0.8386   -5.0146   -0.8081 H         1 <0>         0.0000
     18 H5          2.1279   -3.9985   -0.1897 H         1 <0>         0.0000
     19 H6          1.6034   -6.1304    1.1440 H         1 <0>         0.0000
     20 H7          1.6905   -4.6493    2.1009 H         1 <0>         0.0000
     21 H8         -0.3399   -6.2012    2.5813 H         1 <0>         0.0000
     22 H9         -0.6491   -4.4834    2.3828 H         1 <0>         0.0000
     23 H10        -3.9375   -2.8278   -1.0245 H         1 <0>         0.0000
     24 H11        -3.9713   -3.2456    0.6757 H         1 <0>         0.0000
     25 H12        -4.1475   -1.5475    0.1928 H         1 <0>         0.0000
     26 H13        -1.6135   -6.6359    0.6798 H         1 <0>         0.0000
@<TRIPOS>BOND
     1    1    2 ar
     2    1    3 ar
     3    1   14 1
     4    2    5 ar
     5    2   15 1
     6    3    6 ar
     7    3   16 1
     8    4    5 ar
     9    4    6 ar
    10    4    7 1
    11    5    8 1
    12    6   11 1
    13    7   12 am
    14    7   13 2
    15    8    9 1
    16    8   17 1
    17    8   18 1
    18    9   10 1
    19    9   19 1
    20    9   20 1
    21   10   12 1
    22   10   21 1
    23   10   22 1
    24   11   23 1
    25   11   24 1
    26   11   25 1
    27   12   26 1
