@<TRIPOS>MOLECULE
*****
   30    32     0     0     0
SMALL
NO_CHARGES

@<TRIPOS>ATOM
      1 C1          1.7842   -5.8557    5.4359 C.ar      1 <0>         0.0000
      2 C2          1.0262   -6.7925    4.7220 C.ar      1 <0>         0.0000
      3 C3          2.1891   -4.6721    4.8115 C.ar      1 <0>         0.0000
      4 C4         -0.2650   -1.4580    1.3047 C.ar      1 <0>         0.0000
      5 C5          0.3117   -1.0211    0.1044 C.ar      1 <0>         0.0000
      6 C6          0.6766   -6.5469    3.3945 C.ar      1 <0>         0.0000
      7 C7          1.8297   -4.4203    3.4848 C.ar      1 <0>         0.0000
      8 C8         -0.1383   -2.7925    1.6774 C.ar      1 <0>         0.0000
      9 C9          0.9688   -1.9268   -0.7226 C.ar      1 <0>         0.0000
     10 C10         1.0689   -5.3547    2.7625 C.ar      1 <0>         0.0000
     11 C11         0.5374   -3.7250    0.8672 C.ar      1 <0>         0.0000
     12 C12         1.0716   -3.2824   -0.3636 C.ar      1 <0>         0.0000
     13 C13         0.7102   -5.1287    1.3318 C.2       1 <0>         0.0000
     14 C14         1.3399   -5.4194   -1.6282 C.2       1 <0>         0.0000
     15 C15         0.1898   -5.9912   -0.8064 C.3       1 <0>         0.0000
     16 N1          0.5751   -6.1690    0.5848 N.2       1 <0>         0.0000
     17 N2          1.7576   -4.1542   -1.2309 N.am      1 <0>         0.0000
     18 O1          1.8740   -5.9960   -2.5631 O.2       1 <0>         0.0000
     19 H1          2.0578   -6.0486    6.4701 H         1 <0>         0.0000
     20 H2          0.7089   -7.7144    5.2027 H         1 <0>         0.0000
     21 H3          2.7876   -3.9458    5.3553 H         1 <0>         0.0000
     22 H4         -0.7980   -0.7608    1.9446 H         1 <0>         0.0000
     23 H5          0.2366    0.0214   -0.1929 H         1 <0>         0.0000
     24 H6          0.1010   -7.2705    2.8263 H         1 <0>         0.0000
     25 H7          2.1570   -3.5022    3.0062 H         1 <0>         0.0000
     26 H8         -0.5590   -3.1318    2.6190 H         1 <0>         0.0000
     27 H9          1.3965   -1.5953   -1.6660 H         1 <0>         0.0000
     28 H10        -0.6745   -5.3167   -0.9133 H         1 <0>         0.0000
     29 H11        -0.0611   -6.9597   -1.2385 H         1 <0>         0.0000
     30 H12         2.4131   -3.7339   -1.8826 H         1 <0>         0.0000
@<TRIPOS>BOND
     1    1    3 ar
     2    1    2 ar
     3    1   19 1
     4    2    6 ar
     5    2   20 1
     6    3    7 ar
     7    3   21 1
     8    4    5 ar
     9    4    8 ar
    10    4   22 1
    11    5    9 ar
    12    5   23 1
    13    6   10 ar
    14    6   24 1
    15    7   10 ar
    16    7   25 1
    17    8   11 ar
    18    8   26 1
    19    9   12 ar
    20    9   27 1
    21   10   13 1
    22   11   12 ar
    23   11   13 1
    24   12   17 1
    25   13   16 2
    26   14   15 1
    27   14   17 am
    28   14   18 2
    29   15   16 1
    30   15   28 1
    31   15   29 1
    32   17   30 1
