@<TRIPOS>MOLECULE
*****
   27    28     0     0     0
SMALL
NO_CHARGES

@<TRIPOS>ATOM
      1 C1          2.9050   -5.0073    3.2612 C.ar      1 <0>         0.0000
      2 C2          1.6459   -4.7915    3.8313 C.ar      1 <0>         0.0000
      3 C3          3.6880   -3.9177    2.8570 C.ar      1 <0>         0.0000
      4 C4         -1.8612    0.2506    5.0434 C.ar      1 <0>         0.0000
      5 C5         -1.7903   -0.0696    6.4025 C.ar      1 <0>         0.0000
      6 C6          1.1758   -3.4889    4.0126 C.ar      1 <0>         0.0000
      7 C7          3.2113   -2.6178    3.0203 C.ar      1 <0>         0.0000
      8 C8         -0.7812   -0.0507    4.2137 C.ar      1 <0>         0.0000
      9 C9         -0.6419   -0.6776    6.9162 C.ar      1 <0>         0.0000
     10 C10         1.9563   -2.3939    3.6096 C.ar      1 <0>         0.0000
     11 C11         0.3557   -0.6968    4.7212 C.ar      1 <0>         0.0000
     12 C12         0.4453   -1.0088    6.0940 C.ar      1 <0>         0.0000
     13 C13         1.4630   -0.9885    3.7460 C.2       1 <0>         0.0000
     14 C14         1.6762   -1.6399    6.7104 C.3       1 <0>         0.0000
     15 O1          1.9201   -0.0910    3.0431 O.2       1 <0>         0.0000
     16 H1          3.2749   -6.0210    3.1287 H         1 <0>         0.0000
     17 H2          1.0331   -5.6364    4.1344 H         1 <0>         0.0000
     18 H3          4.6652   -4.0866    2.4121 H         1 <0>         0.0000
     19 H4         -2.7434    0.7380    4.6370 H         1 <0>         0.0000
     20 H5         -2.6191    0.1673    7.0648 H         1 <0>         0.0000
     21 H6          0.1975   -3.3205    4.4535 H         1 <0>         0.0000
     22 H7          3.7951   -1.7604    2.6992 H         1 <0>         0.0000
     23 H8         -0.8070    0.2083    3.1589 H         1 <0>         0.0000
     24 H9         -0.5812   -0.8922    7.9810 H         1 <0>         0.0000
     25 H10         1.6561   -2.7314    6.6245 H         1 <0>         0.0000
     26 H11         2.5972   -1.2985    6.2311 H         1 <0>         0.0000
     27 H12         1.7383   -1.3907    7.7734 H         1 <0>         0.0000
@<TRIPOS>BOND
     1    1    3 ar
     2    1    2 ar
     3    1   16 1
     4    2    6 ar
     5    2   17 1
     6    3    7 ar
     7    3   18 1
     8    4    5 ar
     9    4    8 ar
    10    4   19 1
    11    5    9 ar
    12    5   20 1
    13    6   10 ar
    14    6   21 1
    15    7   10 ar
    16    7   22 1
    17    8   11 ar
    18    8   23 1
    19    9   12 ar
    20    9   24 1
    21   10   13 1
    22   11   12 ar
    23   11   13 1
    24   12   14 1
    25   13   15 2
    26   14   25 1
    27   14   26 1
    28   14   27 1
