@<TRIPOS>MOLECULE
*****
   29    29     0     0     0
SMALL
NO_CHARGES

@<TRIPOS>ATOM
      1 C1          0.2892    3.8093    4.9844 C.ar      1 <0>         0.0000
      2 C2          0.1331    2.9230    6.0562 C.ar      1 <0>         0.0000
      3 C3          0.4620    3.3036    3.6928 C.ar      1 <0>         0.0000
      4 C4          0.1467    1.5438    5.8359 C.ar      1 <0>         0.0000
      5 C5          0.4768    1.9223    3.4700 C.ar      1 <0>         0.0000
      6 C6          0.3159    1.0346    4.5397 C.ar      1 <0>         0.0000
      7 C7         -0.7687   -1.1739    5.1471 C.2       1 <0>         0.0000
      8 C8         -3.1082   -1.6528    5.5756 C.3       1 <0>         0.0000
      9 C9         -2.5404   -0.1269    3.7211 C.3       1 <0>         0.0000
     10 C10         0.5447   -2.1350    2.6478 C.3       1 <0>         0.0000
     11 C11         0.3417   -0.4705    4.3264 C.3       1 <0>         0.0000
     12 N1         -2.0678   -1.0640    4.7376 N.am      1 <0>         0.0000
     13 O1         -0.4349   -1.8106    6.1516 O.2       1 <0>         0.0000
     14 O2          0.3073   -0.7599    2.9357 O.3       1 <0>         0.0000
     15 H1          0.2774    4.8827    5.1556 H         1 <0>         0.0000
     16 H2          0.0013    3.3056    7.0652 H         1 <0>         0.0000
     17 H3          0.5870    3.9846    2.8545 H         1 <0>         0.0000
     18 H4          0.0273    0.8597    6.6724 H         1 <0>         0.0000
     19 H5          0.6094    1.5279    2.4684 H         1 <0>         0.0000
     20 H6         -3.6067   -0.8812    6.1778 H         1 <0>         0.0000
     21 H7         -2.6586   -2.3849    6.2442 H         1 <0>         0.0000
     22 H8         -3.8577   -2.1384    4.9418 H         1 <0>         0.0000
     23 H9         -3.3803   -0.5817    3.1854 H         1 <0>         0.0000
     24 H10        -1.7577    0.0944    3.0021 H         1 <0>         0.0000
     25 H11        -2.8860    0.8086    4.1801 H         1 <0>         0.0000
     26 H12         0.5404   -2.2315    1.5603 H         1 <0>         0.0000
     27 H13        -0.2379   -2.7774    3.0722 H         1 <0>         0.0000
     28 H14         1.5192   -2.4568    3.0397 H         1 <0>         0.0000
     29 H15         1.2674   -0.8745    4.7582 H         1 <0>         0.0000
@<TRIPOS>BOND
     1    1    3 ar
     2    1    2 ar
     3    1   15 1
     4    2    4 ar
     5    2   16 1
     6    3    5 ar
     7    3   17 1
     8    4    6 ar
     9    4   18 1
    10    5    6 ar
    11    5   19 1
    12    6   11 1
    13    7   11 1
    14    7   12 am
    15    7   13 2
    16    8   12 1
    17    8   20 1
    18    8   21 1
    19    8   22 1
    20    9   12 1
    21    9   23 1
    22    9   24 1
    23    9   25 1
    24   10   14 1
    25   10   26 1
    26   10   27 1
    27   10   28 1
    28   11   14 1
    29   11   29 1
