@<TRIPOS>MOLECULE
*****
   24    24     0     0     0
SMALL
NO_CHARGES

@<TRIPOS>ATOM
      1 C1          2.8715    2.9953   -4.7157 C.2       1 <0>         0.0000
      2 C2          4.0171    3.3759   -4.0222 C.2       1 <0>         0.0000
      3 C3          1.9575    2.4913   -3.7477 C.2       1 <0>         0.0000
      4 C4          2.5544    2.5968   -2.4838 C.2       1 <0>         0.0000
      5 C5          2.2773    2.1387   -1.1105 C.2       1 <0>         0.0000
      6 C6          0.7703    1.3202    0.5966 C.3       1 <0>         0.0000
      7 C7         -0.1693    2.6311   -1.2665 C.3       1 <0>         0.0000
      8 C8          0.3078    1.8651   -5.3190 C.3       1 <0>         0.0000
      9 N1          3.8143    3.1352   -2.7016 N.pl3     1 <0>         0.0000
     10 N2          0.9815    1.9278   -0.7117 N.am      1 <0>         0.0000
     11 O1          3.2395    1.9319   -0.3479 O.2       1 <0>         0.0000
     12 O2          0.7208    1.9536   -3.9581 O.3       1 <0>         0.0000
     13 H1          2.7285    3.0695   -5.7844 H         1 <0>         0.0000
     14 H2          4.9416    3.8010   -4.3881 H         1 <0>         0.0000
     15 H3          0.6969    2.0795    1.3877 H         1 <0>         0.0000
     16 H4          1.6042    0.6602    0.8316 H         1 <0>         0.0000
     17 H5         -0.1614    0.7454    0.5746 H         1 <0>         0.0000
     18 H6         -0.9008    1.9314   -1.6841 H         1 <0>         0.0000
     19 H7          0.1394    3.3150   -2.0533 H         1 <0>         0.0000
     20 H8         -0.6520    3.2139   -0.4708 H         1 <0>         0.0000
     21 H9         -0.6801    1.4023   -5.3066 H         1 <0>         0.0000
     22 H10         0.9971    1.2407   -5.9006 H         1 <0>         0.0000
     23 H11         0.2398    2.8591   -5.7787 H         1 <0>         0.0000
     24 H12         4.4889    3.1850   -1.9475 H         1 <0>         0.0000
@<TRIPOS>BOND
     1    1    2 2
     2    1    3 1
     3    1   13 1
     4    2    9 1
     5    2   14 1
     6    3    4 2
     7    3   12 1
     8    4    5 1
     9    4    9 1
    10    5   10 am
    11    5   11 2
    12    6   10 1
    13    6   15 1
    14    6   16 1
    15    6   17 1
    16    7   10 1
    17    7   18 1
    18    7   19 1
    19    7   20 1
    20    8   12 1
    21    8   21 1
    22    8   22 1
    23    8   23 1
    24    9   24 1
