@<TRIPOS>MOLECULE
*****
   22    23     0     0     0
SMALL
NO_CHARGES

@<TRIPOS>ATOM
      1 C1          0.1816   -0.4709    0.9221 C.ar      1 <0>         0.0000
      2 C2          1.3754   -0.0760    1.5349 C.ar      1 <0>         0.0000
      3 C3          1.9717   -3.0130    6.4224 C.2       1 <0>         0.0000
      4 C4         -0.6478   -1.3649    1.5939 C.ar      1 <0>         0.0000
      5 C5          0.5684   -2.8525    6.5848 C.2       1 <0>         0.0000
      6 C6          2.2395   -2.4787    5.1800 C.2       1 <0>         0.0000
      7 C7          1.6934   -0.5871    2.7948 C.ar      1 <0>         0.0000
      8 C8          0.7819   -1.4992    3.3858 C.ar      1 <0>         0.0000
      9 C9          3.6748    0.7443    2.9675 C.3       1 <0>         0.0000
     10 N1         -0.3452   -1.8727    2.7957 N.ar      1 <0>         0.0000
     11 N2          0.0058   -2.2762    5.5283 N.2       1 <0>         0.0000
     12 N3          1.0414   -2.0440    4.6700 N.pl3     1 <0>         0.0000
     13 O1          2.8146   -0.2611    3.5023 O.3       1 <0>         0.0000
     14 H1         -0.0923   -0.0872   -0.0563 H         1 <0>         0.0000
     15 H2          2.0336    0.6280    1.0387 H         1 <0>         0.0000
     16 H3          2.6815   -3.4520    7.1104 H         1 <0>         0.0000
     17 H4         -1.5873   -1.6965    1.1569 H         1 <0>         0.0000
     18 H5         -0.0499   -3.1258    7.4314 H         1 <0>         0.0000
     19 H6          3.1593   -2.3718    4.6267 H         1 <0>         0.0000
     20 H7          4.4629    0.8820    3.7082 H         1 <0>         0.0000
     21 H8          3.1375    1.6893    2.8255 H         1 <0>         0.0000
     22 H9          4.1192    0.4244    2.0174 H         1 <0>         0.0000
@<TRIPOS>BOND
     1    1    2 ar
     2    1    4 ar
     3    1   14 1
     4    2    7 ar
     5    2   15 1
     6    3    5 1
     7    3    6 2
     8    3   16 1
     9    4   10 ar
    10    4   17 1
    11    5   11 2
    12    5   18 1
    13    6   12 1
    14    6   19 1
    15    7    8 ar
    16    7   13 1
    17    8   10 ar
    18    8   12 1
    19    9   13 1
    20    9   20 1
    21    9   21 1
    22    9   22 1
    23   11   12 1
