@<TRIPOS>MOLECULE
*****
   18    18     0     0     0
SMALL
NO_CHARGES

@<TRIPOS>ATOM
      1 C1          1.3851   -0.0362    1.5660 C.ar      1 <0>         0.0000
      2 C2          0.1972   -0.4472    0.9523 C.ar      1 <0>         0.0000
      3 C3          1.7223   -0.5278    2.8256 C.ar      1 <0>         0.0000
      4 C4         -0.6137   -1.3495    1.6427 C.ar      1 <0>         0.0000
      5 C5          0.8297   -1.4323    3.4263 C.ar      1 <0>         0.0000
      6 C6          2.0890   -1.8466    5.5668 C.2       1 <0>         0.0000
      7 C7          1.9860   -2.6909    6.8268 C.3       1 <0>         0.0000
      8 N1         -0.3136   -1.8372    2.8528 N.ar      1 <0>         0.0000
      9 N2          1.0344   -2.0103    4.6917 N.am      1 <0>         0.0000
     10 O1          3.0463   -1.1101    5.3504 O.2       1 <0>         0.0000
     11 H1          2.0498    0.6655    1.0684 H         1 <0>         0.0000
     12 H2         -0.0942   -0.0827   -0.0280 H         1 <0>         0.0000
     13 H3          2.6288   -0.2381    3.3390 H         1 <0>         0.0000
     14 H4         -1.5487   -1.7005    1.2089 H         1 <0>         0.0000
     15 H5          2.4880   -3.6495    6.6561 H         1 <0>         0.0000
     16 H6          0.9530   -2.8926    7.1250 H         1 <0>         0.0000
     17 H7          2.5061   -2.1755    7.6351 H         1 <0>         0.0000
     18 H8          0.2824   -2.6382    4.9531 H         1 <0>         0.0000
@<TRIPOS>BOND
     1    1    2 ar
     2    1    3 ar
     3    1   11 1
     4    2    4 ar
     5    2   12 1
     6    3    5 ar
     7    3   13 1
     8    4    8 ar
     9    4   14 1
    10    5    8 ar
    11    5    9 1
    12    6    7 1
    13    6    9 am
    14    6   10 2
    15    7   15 1
    16    7   16 1
    17    7   17 1
    18    9   18 1
