@<TRIPOS>MOLECULE
*****
   23    24     0     0     0
SMALL
NO_CHARGES

@<TRIPOS>ATOM
      1 C1          1.9984   -0.7859   -0.0794 C.ar      1 <0>         0.0000
      2 C2          0.8362   -0.3438    0.5669 C.ar      1 <0>         0.0000
      3 C3          6.3566   -2.7520    3.0277 C.ar      1 <0>         0.0000
      4 C4          6.0499   -3.4998    4.1690 C.ar      1 <0>         0.0000
      5 C5          2.9949   -1.3959    0.6763 C.ar      1 <0>         0.0000
      6 C6          0.6854   -0.5320    1.9355 C.ar      1 <0>         0.0000
      7 C7          5.3303   -2.1077    2.3444 C.ar      1 <0>         0.0000
      8 C8          4.7160   -3.5412    4.5748 C.ar      1 <0>         0.0000
      9 C9          2.8808   -1.5890    2.0672 C.ar      1 <0>         0.0000
     10 C10         1.6829   -1.1623    2.7109 C.ar      1 <0>         0.0000
     11 C11         4.0004   -2.2263    2.8018 C.ar      1 <0>         0.0000
     12 N1          3.7201   -2.9288    3.9228 N.ar      1 <0>         0.0000
     13 N2          1.4996   -1.2805    4.0828 N.pl3     1 <0>         0.0000
     14 H1          2.1178   -0.6668   -1.1523 H         1 <0>         0.0000
     15 H2          0.0423    0.1375    0.0010 H         1 <0>         0.0000
     16 H3          7.3839   -2.6612    2.6836 H         1 <0>         0.0000
     17 H4          6.8167   -4.0180    4.7369 H         1 <0>         0.0000
     18 H5          3.8805   -1.7657    0.1681 H         1 <0>         0.0000
     19 H6         -0.2208   -0.1914    2.4328 H         1 <0>         0.0000
     20 H7          5.5562   -1.4930    1.4801 H         1 <0>         0.0000
     21 H8          4.4296   -4.0917    5.4699 H         1 <0>         0.0000
     22 H9          2.0203   -2.0480    4.5002 H         1 <0>         0.0000
     23 H10         0.5365   -1.2111    4.3875 H         1 <0>         0.0000
@<TRIPOS>BOND
     1    1    2 ar
     2    1    5 ar
     3    1   14 1
     4    2    6 ar
     5    2   15 1
     6    3    4 ar
     7    3    7 ar
     8    3   16 1
     9    4    8 ar
    10    4   17 1
    11    5    9 ar
    12    5   18 1
    13    6   10 ar
    14    6   19 1
    15    7   11 ar
    16    7   20 1
    17    8   12 ar
    18    8   21 1
    19    9   10 ar
    20    9   11 1
    21   10   13 1
    22   11   12 ar
    23   13   22 1
    24   13   23 1
