@<TRIPOS>MOLECULE
*****
   24    24     0     0     0
SMALL
NO_CHARGES

@<TRIPOS>ATOM
      1 C1          7.9075   -0.5986   -2.7807 C.ar      1 <0>         0.0000
      2 C2          6.9192   -1.5668   -2.5793 C.ar      1 <0>         0.0000
      3 C3          7.7073    0.6929   -2.2808 C.ar      1 <0>         0.0000
      4 C4          5.7452   -1.2598   -1.8864 C.ar      1 <0>         0.0000
      5 C5          6.5296    1.0141   -1.6044 C.ar      1 <0>         0.0000
      6 C6          5.5386    0.0399   -1.3979 C.ar      1 <0>         0.0000
      7 C7          3.2073   -0.3409   -0.4958 C.2       1 <0>         0.0000
      8 C8          1.5219   -1.8057   -1.4333 C.3       1 <0>         0.0000
      9 C9          2.8799   -0.4309   -2.9721 C.3       1 <0>         0.0000
     10 N1          4.3743    0.4210   -0.6796 N.am      1 <0>         0.0000
     11 N2          2.6762   -0.9336   -1.6171 N.am      1 <0>         0.0000
     12 O1          2.6954   -0.4296    0.6219 O.2       1 <0>         0.0000
     13 H1          8.8200   -0.8464   -3.3156 H         1 <0>         0.0000
     14 H2          7.0652   -2.5779   -2.9510 H         1 <0>         0.0000
     15 H3          8.4648    1.4585   -2.4272 H         1 <0>         0.0000
     16 H4          4.9970   -2.0263   -1.7159 H         1 <0>         0.0000
     17 H5          6.3662    2.0247   -1.2370 H         1 <0>         0.0000
     18 H6          0.5788   -1.2491   -1.5199 H         1 <0>         0.0000
     19 H7          1.5627   -2.2607   -0.4447 H         1 <0>         0.0000
     20 H8          1.5397   -2.5882   -2.1991 H         1 <0>         0.0000
     21 H9          3.3345   -1.1927   -3.6164 H         1 <0>         0.0000
     22 H10         3.5250    0.4454   -2.9659 H         1 <0>         0.0000
     23 H11         1.9125   -0.1427   -3.4026 H         1 <0>         0.0000
     24 H12         4.5646    0.9450    0.1678 H         1 <0>         0.0000
@<TRIPOS>BOND
     1    1    3 ar
     2    1    2 ar
     3    1   13 1
     4    2    4 ar
     5    2   14 1
     6    3    5 ar
     7    3   15 1
     8    4    6 ar
     9    4   16 1
    10    5    6 ar
    11    5   17 1
    12    6   10 1
    13    7   10 am
    14    7   11 am
    15    7   12 2
    16    8   11 1
    17    8   18 1
    18    8   19 1
    19    8   20 1
    20    9   11 1
    21    9   21 1
    22    9   22 1
    23    9   23 1
    24   10   24 1
