@<TRIPOS>MOLECULE
*****
   23    24     0     0     0
SMALL
NO_CHARGES

@<TRIPOS>ATOM
      1 C1          1.7858   -0.9316   -0.1859 C.ar      1 <0>         0.0000
      2 C2          4.4151   -3.6253    6.1790 C.ar      1 <0>         0.0000
      3 C3          1.6272    0.2106    0.6064 C.ar      1 <0>         0.0000
      4 C4          1.9839   -2.1737    0.4278 C.ar      1 <0>         0.0000
      5 C5          3.0795   -3.4537    6.5587 C.ar      1 <0>         0.0000
      6 C6          4.8949   -2.9770    5.0351 C.ar      1 <0>         0.0000
      7 C7          1.6751    0.1175    2.0002 C.ar      1 <0>         0.0000
      8 C8          2.0255   -2.2815    1.8205 C.ar      1 <0>         0.0000
      9 C9          2.2253   -2.6494    5.7990 C.ar      1 <0>         0.0000
     10 C10         4.0534   -2.1635    4.2716 C.ar      1 <0>         0.0000
     11 C11         1.8755   -1.1286    2.6000 C.ar      1 <0>         0.0000
     12 C12         2.7170   -2.0095    4.6583 C.ar      1 <0>         0.0000
     13 O1          1.8445   -1.1705    3.9845 O.3       1 <0>         0.0000
     14 H1          1.7528   -0.8558   -1.2692 H         1 <0>         0.0000
     15 H2          5.0757   -4.2548    6.7686 H         1 <0>         0.0000
     16 H3          1.4712    1.1800    0.1402 H         1 <0>         0.0000
     17 H4          2.0994   -3.0684   -0.1786 H         1 <0>         0.0000
     18 H5          2.6969   -3.9512    7.4461 H         1 <0>         0.0000
     19 H6          5.9333   -3.0969    4.7366 H         1 <0>         0.0000
     20 H7          1.5582    0.9927    2.6324 H         1 <0>         0.0000
     21 H8          2.1724   -3.2452    2.2980 H         1 <0>         0.0000
     22 H9          1.1846   -2.5066    6.0748 H         1 <0>         0.0000
     23 H10         4.4258   -1.6547    3.3880 H         1 <0>         0.0000
@<TRIPOS>BOND
     1    1    4 ar
     2    1    3 ar
     3    1   14 1
     4    2    6 ar
     5    2    5 ar
     6    2   15 1
     7    3    7 ar
     8    3   16 1
     9    4    8 ar
    10    4   17 1
    11    5    9 ar
    12    5   18 1
    13    6   10 ar
    14    6   19 1
    15    7   11 ar
    16    7   20 1
    17    8   11 ar
    18    8   21 1
    19    9   12 ar
    20    9   22 1
    21   10   12 ar
    22   10   23 1
    23   11   13 1
    24   12   13 1
