@<TRIPOS>MOLECULE
*****
   30    31     0     0     0
SMALL
NO_CHARGES

@<TRIPOS>ATOM
      1 C1         -1.4739   -1.5536    3.1706 C.2       1 <0>         0.0000
      2 C2         -1.0541   -0.3636    2.5090 C.2       1 <0>         0.0000
      3 C3         -2.5202   -2.2532    2.6374 C.2       1 <0>         0.0000
      4 C4         -1.6653    0.0828    1.3641 C.2       1 <0>         0.0000
      5 C5         -2.7771   -0.6598    0.7871 C.2       1 <0>         0.0000
      6 C6         -1.7340    1.6603   -1.7697 C.3       1 <0>         0.0000
      7 C7          0.5204    1.1524   -1.0682 C.3       1 <0>         0.0000
      8 C8         -1.5850    0.8562   -3.0505 C.3       1 <0>         0.0000
      9 C9          0.7915    0.3436   -2.3348 C.3       1 <0>         0.0000
     10 C10        -1.2692    1.3500    0.6486 C.3       1 <0>         0.0000
     11 N1         -3.1281   -1.8133    1.4948 N.am      1 <0>         0.0000
     12 N2         -0.8858    1.0812   -0.7480 N.3       1 <0>         0.0000
     13 N3         -0.1137    0.8422   -3.4493 N.4       1 <0>         0.0000
     14 O1         -3.4026   -0.3461   -0.2393 O.2       1 <0>         0.0000
     15 H1         -0.9927   -1.8989    4.0775 H         1 <0>         0.0000
     16 H2         -0.2317    0.2099    2.9333 H         1 <0>         0.0000
     17 H3         -2.9169   -3.1631    3.0748 H         1 <0>         0.0000
     18 H4         -1.5142    2.7298   -1.9644 H         1 <0>         0.0000
     19 H5         -2.7746    1.5675   -1.4564 H         1 <0>         0.0000
     20 H6          1.1098    0.7010   -0.2654 H         1 <0>         0.0000
     21 H7          0.8911    2.1892   -1.2030 H         1 <0>         0.0000
     22 H8         -1.8803   -0.1801   -2.8804 H         1 <0>         0.0000
     23 H9         -2.1417    1.2808   -3.8886 H         1 <0>         0.0000
     24 H10         1.8219    0.4384   -2.6848 H         1 <0>         0.0000
     25 H11         0.5396   -0.7068   -2.1825 H         1 <0>         0.0000
     26 H12        -0.4511    1.8448    1.1847 H         1 <0>         0.0000
     27 H13        -2.1124    2.0492    0.6521 H         1 <0>         0.0000
     28 H14        -3.9188   -2.3225    1.1094 H         1 <0>         0.0000
     29 H15         0.1655    1.7988   -3.6994 H         1 <0>         0.0000
     30 H16         0.0198    0.2701   -4.2901 H         1 <0>         0.0000
@<TRIPOS>BOND
     1    1    2 1
     2    1    3 2
     3    1   15 1
     4    2    4 2
     5    2   16 1
     6    3   11 1
     7    3   17 1
     8    4    5 1
     9    4   10 1
    10    5   11 am
    11    5   14 2
    12    6    8 1
    13    6   12 1
    14    6   18 1
    15    6   19 1
    16    7    9 1
    17    7   12 1
    18    7   20 1
    19    7   21 1
    20    8   13 1
    21    8   22 1
    22    8   23 1
    23    9   13 1
    24    9   24 1
    25    9   25 1
    26   10   12 1
    27   10   26 1
    28   10   27 1
    29   11   28 1
    30   13   29 1
    31   13   30 1
