@<TRIPOS>MOLECULE
*****
   19    20     0     0     0
SMALL
NO_CHARGES

@<TRIPOS>ATOM
      1 C1          1.5004   -3.7464    0.0806 C.ar      1 <0>         0.0000
      2 C2          0.4778   -4.6241    0.4500 C.ar      1 <0>         0.0000
      3 C3          1.2312   -2.3778    0.0516 C.ar      1 <0>         0.0000
      4 C4         -0.7694   -4.0822    0.7712 C.ar      1 <0>         0.0000
      5 C5         -0.0533   -1.9273    0.3922 C.ar      1 <0>         0.0000
      6 C6         -1.3416    0.0835    1.4482 C.3       1 <0>         0.0000
      7 C7          0.6028    0.5780    0.8876 C.3       1 <0>         0.0000
      8 C8         -0.4063   -0.4646    0.3500 C.3       1 <0>         0.0000
      9 N1         -1.0386   -2.7697    0.7464 N.ar      1 <0>         0.0000
     10 O1         -0.3920    1.1379    1.7799 O.3       1 <0>         0.0000
     11 H1          2.4878   -4.1206   -0.1778 H         1 <0>         0.0000
     12 H2          0.6378   -5.6977    0.4908 H         1 <0>         0.0000
     13 H3          2.0028   -1.6666   -0.2312 H         1 <0>         0.0000
     14 H4         -1.5930   -4.7320    1.0645 H         1 <0>         0.0000
     15 H5         -2.3010    0.4937    1.1185 H         1 <0>         0.0000
     16 H6         -1.4988   -0.6038    2.2856 H         1 <0>         0.0000
     17 H7          1.4477    0.1508    1.4438 H         1 <0>         0.0000
     18 H8          0.9717    1.3223    0.1728 H         1 <0>         0.0000
     19 H9         -0.7615   -0.2097   -0.6538 H         1 <0>         0.0000
@<TRIPOS>BOND
     1    1    2 ar
     2    1    3 ar
     3    1   11 1
     4    2    4 ar
     5    2   12 1
     6    3    5 ar
     7    3   13 1
     8    4    9 ar
     9    4   14 1
    10    5    8 1
    11    5    9 ar
    12    6    8 1
    13    6   10 1
    14    6   15 1
    15    6   16 1
    16    7    8 1
    17    7   10 1
    18    7   17 1
    19    7   18 1
    20    8   19 1
