@<TRIPOS>MOLECULE
*****
   19    20     0     0     0
SMALL
NO_CHARGES

@<TRIPOS>ATOM
      1 C1          0.5060    1.2828   -1.6056 C.2       1 <0>         0.0000
      2 C2          0.0987    1.8682   -2.8408 C.2       1 <0>         0.0000
      3 C3         -0.2526    0.3123   -1.0118 C.2       1 <0>         0.0000
      4 C4         -1.0756    1.4474   -3.3985 C.2       1 <0>         0.0000
      5 C5         -1.4855   -0.1719   -1.6043 C.2       1 <0>         0.0000
      6 C6         -4.0136    1.0537   -4.0772 C.3       1 <0>         0.0000
      7 C7         -4.4019    0.3621   -2.7862 C.3       1 <0>         0.0000
      8 C8         -3.0852    0.0486   -3.4372 C.3       1 <0>         0.0000
      9 N1         -1.8620    0.4972   -2.8037 N.am      1 <0>         0.0000
     10 O1         -2.1875   -1.0815   -1.1549 O.2       1 <0>         0.0000
     11 H1          1.4314    1.6095   -1.1365 H         1 <0>         0.0000
     12 H2          0.6920    2.6271   -3.3375 H         1 <0>         0.0000
     13 H3          0.0384   -0.1580   -0.0784 H         1 <0>         0.0000
     14 H4         -1.4483    1.8411   -4.3374 H         1 <0>         0.0000
     15 H5         -4.5027    0.7616   -5.0015 H         1 <0>         0.0000
     16 H6         -3.7553    2.1066   -4.0168 H         1 <0>         0.0000
     17 H7         -4.3674    0.9505   -1.8756 H         1 <0>         0.0000
     18 H8         -5.1613   -0.4123   -2.8023 H         1 <0>         0.0000
     19 H9         -2.9910   -0.9288   -3.9020 H         1 <0>         0.0000
@<TRIPOS>BOND
     1    1    3 2
     2    1    2 1
     3    1   11 1
     4    2    4 2
     5    2   12 1
     6    3    5 1
     7    3   13 1
     8    4    9 1
     9    4   14 1
    10    5    9 am
    11    5   10 2
    12    6    7 1
    13    6    8 1
    14    6   15 1
    15    6   16 1
    16    7    8 1
    17    7   17 1
    18    7   18 1
    19    8    9 1
    20    8   19 1
