@<TRIPOS>MOLECULE
*****
   31    32     0     0     0
SMALL
NO_CHARGES

@<TRIPOS>ATOM
      1 C1          2.2952   -0.8387    0.0023 C.ar      1 <0>         0.0000
      2 C2          0.9688   -0.8852    0.4310 C.ar      1 <0>         0.0000
      3 C3          5.4256   -7.5993    5.0071 C.ar      1 <0>         0.0000
      4 C4          6.5023   -7.4918    5.8953 C.ar      1 <0>         0.0000
      5 C5          3.2983   -1.3632    0.8250 C.ar      1 <0>         0.0000
      6 C6          0.6447   -1.4240    1.6819 C.ar      1 <0>         0.0000
      7 C7          4.9085   -6.4585    4.3991 C.ar      1 <0>         0.0000
      8 C8          7.0188   -6.2184    6.1360 C.ar      1 <0>         0.0000
      9 C9          2.9923   -1.9033    2.0740 C.ar      1 <0>         0.0000
     10 C10         1.6519   -1.9143    2.5220 C.ar      1 <0>         0.0000
     11 C11         5.5121   -5.2266    4.7127 C.ar      1 <0>         0.0000
     12 C12         4.0458   -3.7413    3.3161 C.2       1 <0>         0.0000
     13 C13         0.1050   -2.6623    4.1800 C.3       1 <0>         0.0000
     14 N1          6.5438   -5.1052    5.5629 N.ar      1 <0>         0.0000
     15 N2          4.0173   -2.4057    2.9170 N.am      1 <0>         0.0000
     16 N3          5.1135   -3.9989    4.1688 N.am      1 <0>         0.0000
     17 O1          3.2245   -4.5745    2.9589 O.2       1 <0>         0.0000
     18 O2          1.4437   -2.3892    3.7803 O.3       1 <0>         0.0000
     19 H1          2.5492   -0.4210   -0.9674 H         1 <0>         0.0000
     20 H2          0.1753   -0.4992   -0.2033 H         1 <0>         0.0000
     21 H3          4.9853   -8.5690    4.7887 H         1 <0>         0.0000
     22 H4          6.9267   -8.3619    6.3867 H         1 <0>         0.0000
     23 H5          4.3330   -1.3724    0.4895 H         1 <0>         0.0000
     24 H6         -0.3905   -1.4372    2.0039 H         1 <0>         0.0000
     25 H7          4.0704   -6.4931    3.7167 H         1 <0>         0.0000
     26 H8          7.8539   -6.0782    6.8207 H         1 <0>         0.0000
     27 H9          0.1791   -3.1351    5.1601 H         1 <0>         0.0000
     28 H10        -0.3822   -3.3500    3.4791 H         1 <0>         0.0000
     29 H11        -0.4857   -1.7414    4.2660 H         1 <0>         0.0000
     30 H12         4.8983   -1.9078    2.8959 H         1 <0>         0.0000
     31 H13         5.6276   -3.2185    4.5619 H         1 <0>         0.0000
@<TRIPOS>BOND
     1    1    2 ar
     2    1    5 ar
     3    1   19 1
     4    2    6 ar
     5    2   20 1
     6    3    4 ar
     7    3    7 ar
     8    3   21 1
     9    4    8 ar
    10    4   22 1
    11    5    9 ar
    12    5   23 1
    13    6   10 ar
    14    6   24 1
    15    7   11 ar
    16    7   25 1
    17    8   14 ar
    18    8   26 1
    19    9   10 ar
    20    9   15 1
    21   10   18 1
    22   11   14 ar
    23   11   16 1
    24   12   15 am
    25   12   16 am
    26   12   17 2
    27   13   18 1
    28   13   27 1
    29   13   28 1
    30   13   29 1
    31   15   30 1
    32   16   31 1
