@<TRIPOS>MOLECULE
*****
   29    30     0     0     0
SMALL
NO_CHARGES

@<TRIPOS>ATOM
      1 C1          1.9534   -0.8682   -0.3069 C.ar      1 <0>         0.0000
      2 C2          0.3412   -5.7854    3.5780 C.ar      1 <0>         0.0000
      3 C3          3.0958   -1.0549    0.4821 C.ar      1 <0>         0.0000
      4 C4          0.7063   -0.7235    0.3061 C.ar      1 <0>         0.0000
      5 C5          1.6010   -5.4818    3.0512 C.ar      1 <0>         0.0000
      6 C6         -0.2921   -4.8698    4.4262 C.ar      1 <0>         0.0000
      7 C7          2.9889   -1.0894    1.8729 C.ar      1 <0>         0.0000
      8 C8          0.6037   -0.7641    1.7015 C.ar      1 <0>         0.0000
      9 C9          2.2227   -4.2682    3.3598 C.ar      1 <0>         0.0000
     10 C10         0.3272   -3.6583    4.7462 C.ar      1 <0>         0.0000
     11 C11         1.7410   -0.9395    2.4960 C.ar      1 <0>         0.0000
     12 C12         1.5847   -3.3587    4.2082 C.ar      1 <0>         0.0000
     13 C13         2.3361    0.1881    4.6917 C.3       1 <0>         0.0000
     14 C14         1.6305   -0.9772    4.0078 C.3       1 <0>         0.0000
     15 O1          2.2346   -2.1822    4.5399 O.3       1 <0>         0.0000
     16 H1          2.0361   -0.8425   -1.3905 H         1 <0>         0.0000
     17 H2         -0.1415   -6.7278    3.3337 H         1 <0>         0.0000
     18 H3          4.0678   -1.1757    0.0101 H         1 <0>         0.0000
     19 H4         -0.1865   -0.5885   -0.2992 H         1 <0>         0.0000
     20 H5          2.0994   -6.1878    2.3918 H         1 <0>         0.0000
     21 H6         -1.2660   -5.1034    4.8492 H         1 <0>         0.0000
     22 H7          3.8741   -1.2489    2.4833 H         1 <0>         0.0000
     23 H8         -0.3715   -0.6678    2.1745 H         1 <0>         0.0000
     24 H9          3.1948   -4.0121    2.9503 H         1 <0>         0.0000
     25 H10        -0.1504   -2.9538    5.4221 H         1 <0>         0.0000
     26 H11         3.4049    0.1791    4.4601 H         1 <0>         0.0000
     27 H12         2.2151    0.1175    5.7766 H         1 <0>         0.0000
     28 H13         1.9166    1.1368    4.3448 H         1 <0>         0.0000
     29 H14         0.5679   -0.9660    4.2815 H         1 <0>         0.0000
@<TRIPOS>BOND
     1    1    4 ar
     2    1    3 ar
     3    1   16 1
     4    2    6 ar
     5    2    5 ar
     6    2   17 1
     7    3    7 ar
     8    3   18 1
     9    4    8 ar
    10    4   19 1
    11    5    9 ar
    12    5   20 1
    13    6   10 ar
    14    6   21 1
    15    7   11 ar
    16    7   22 1
    17    8   11 ar
    18    8   23 1
    19    9   12 ar
    20    9   24 1
    21   10   12 ar
    22   10   25 1
    23   11   14 1
    24   12   15 1
    25   13   14 1
    26   13   26 1
    27   13   27 1
    28   13   28 1
    29   14   15 1
    30   14   29 1
