@<TRIPOS>MOLECULE
*****
   22    22     0     0     0
SMALL
NO_CHARGES

@<TRIPOS>ATOM
      1 C1         -2.5241    2.6926    1.5466 C.ar      1 <0>         0.0000
      2 C2         -1.9495    3.9652    1.5744 C.ar      1 <0>         0.0000
      3 C3         -1.7507    1.5935    1.9296 C.ar      1 <0>         0.0000
      4 C4         -0.6190    4.0931    1.9880 C.ar      1 <0>         0.0000
      5 C5         -0.4394    1.8508    2.3282 C.ar      1 <0>         0.0000
      6 C6          2.8716    1.2932    1.7818 C.3       1 <0>         0.0000
      7 C7          2.1092   -0.9822    1.1986 C.3       1 <0>         0.0000
      8 N1          0.1314    3.0510    2.3675 N.ar      1 <0>         0.0000
      9 N2          1.7276    0.3799    1.6082 N.pl3     1 <0>         0.0000
     10 O1          1.2318    0.8093    4.1362 O.2       1 <0>         0.0000
     11 O2         -0.2427   -0.7514    2.7592 O.2       1 <0>         0.0000
     12 S1          0.5931    0.4510    2.8677 S.o2      1 <0>         0.0000
     13 H1         -3.5555    2.5550    1.2332 H         1 <0>         0.0000
     14 H2         -2.5156    4.8457    1.2852 H         1 <0>         0.0000
     15 H3         -2.1337    0.5792    1.9318 H         1 <0>         0.0000
     16 H4         -0.1380    5.0687    2.0210 H         1 <0>         0.0000
     17 H5          2.5149    2.2865    2.0528 H         1 <0>         0.0000
     18 H6          3.3900    1.3555    0.8207 H         1 <0>         0.0000
     19 H7          3.5694    0.9383    2.5506 H         1 <0>         0.0000
     20 H8          1.2173   -1.5960    1.0806 H         1 <0>         0.0000
     21 H9          2.7870   -1.4623    1.9179 H         1 <0>         0.0000
     22 H10         2.6166   -0.8998    0.2334 H         1 <0>         0.0000
@<TRIPOS>BOND
     1    1    2 ar
     2    1    3 ar
     3    1   13 1
     4    2    4 ar
     5    2   14 1
     6    3    5 ar
     7    3   15 1
     8    4    8 ar
     9    4   16 1
    10    5    8 ar
    11    5   12 1
    12    6    9 1
    13    6   17 1
    14    6   18 1
    15    6   19 1
    16    7    9 1
    17    7   20 1
    18    7   21 1
    19    7   22 1
    20    9   12 1
    21   10   12 2
    22   11   12 2
