@<TRIPOS>MOLECULE
*****
   16    16     0     0     0
SMALL
NO_CHARGES

@<TRIPOS>ATOM
      1 C1          0.4451   -0.3864    2.1100 C.2       1 <0>         0.0000
      2 C2          0.0878   -0.3075   -0.4641 C.3       1 <0>         0.0000
      3 C3         -0.1813    1.0890    0.0629 C.3       1 <0>         0.0000
      4 C4          0.7953    0.1887    0.7647 C.3       1 <0>         0.0000
      5 C5          1.3416   -1.0466    4.3156 C.3       1 <0>         0.0000
      6 N1          1.4900   -0.5098    2.9711 N.am      1 <0>         0.0000
      7 O1         -0.7177   -0.7066    2.3647 O.2       1 <0>         0.0000
      8 F1          2.1479    0.5044    0.6184 F         1 <0>         0.0000
      9 H1         -0.6683   -1.0704   -0.3129 H         1 <0>         0.0000
     10 H2          0.6990   -0.3968   -1.3566 H         1 <0>         0.0000
     11 H3          0.2520    1.9220   -0.4816 H         1 <0>         0.0000
     12 H4         -1.1203    1.2756    0.5728 H         1 <0>         0.0000
     13 H5          1.6438   -0.3077    5.0657 H         1 <0>         0.0000
     14 H6          1.9447   -1.9521    4.4432 H         1 <0>         0.0000
     15 H7          0.2905   -1.2952    4.4638 H         1 <0>         0.0000
     16 H8          2.4012   -0.2132    2.6474 H         1 <0>         0.0000
@<TRIPOS>BOND
     1    1    4 1
     2    1    6 am
     3    1    7 2
     4    2    3 1
     5    2    4 1
     6    2    9 1
     7    2   10 1
     8    3    4 1
     9    3   11 1
    10    3   12 1
    11    4    8 1
    12    5    6 1
    13    5   13 1
    14    5   14 1
    15    5   15 1
    16    6   16 1
