@<TRIPOS>MOLECULE
*****
   24    26     0     0     0
SMALL
NO_CHARGES

@<TRIPOS>ATOM
      1 C1          1.2926   -0.8245    1.6521 C.ar      1 <0>         0.0000
      2 C2          0.2585   -0.9351    0.7320 C.ar      1 <0>         0.0000
      3 C3         -2.0079   -3.6707   -0.5168 C.2       1 <0>         0.0000
      4 C4          1.6928   -1.9832    2.3376 C.ar      1 <0>         0.0000
      5 C5         -1.4744   -4.6872    0.2150 C.2       1 <0>         0.0000
      6 C6         -0.3416   -2.1829    0.5122 C.ar      1 <0>         0.0000
      7 C7         -1.4676   -2.3239   -0.4444 C.2       1 <0>         0.0000
      8 C8          0.1570   -3.2828    1.2495 C.ar      1 <0>         0.0000
      9 C9          1.4470   -6.2303    1.5654 C.3       1 <0>         0.0000
     10 C10         0.2166   -7.0228    1.1809 C.3       1 <0>         0.0000
     11 C11         0.0801   -5.6691    1.8393 C.3       1 <0>         0.0000
     12 N1          1.1486   -3.1856    2.1519 N.ar      1 <0>         0.0000
     13 N2         -0.3988   -4.5469    1.0579 N.pl3     1 <0>         0.0000
     14 O1         -1.8987   -1.3656   -1.1008 O.2       1 <0>         0.0000
     15 H1          1.7812    0.1245    1.8511 H         1 <0>         0.0000
     16 H2         -0.1167   -0.0854    0.1686 H         1 <0>         0.0000
     17 H3         -2.8524   -3.8598   -1.1703 H         1 <0>         0.0000
     18 H4          2.4919   -1.9354    3.0763 H         1 <0>         0.0000
     19 H5         -1.8786   -5.6920    0.1670 H         1 <0>         0.0000
     20 H6          2.0370   -6.5407    2.4214 H         1 <0>         0.0000
     21 H7          2.0118   -5.7687    0.7626 H         1 <0>         0.0000
     22 H8         -0.0076   -7.1049    0.1219 H         1 <0>         0.0000
     23 H9         -0.0598   -7.8915    1.7706 H         1 <0>         0.0000
     24 H10        -0.2396   -5.6425    2.8776 H         1 <0>         0.0000
@<TRIPOS>BOND
     1    1    2 ar
     2    1    4 ar
     3    1   15 1
     4    2    6 ar
     5    2   16 1
     6    3    5 2
     7    3    7 1
     8    3   17 1
     9    4   12 ar
    10    4   18 1
    11    5   13 1
    12    5   19 1
    13    6    8 ar
    14    6    7 1
    15    7   14 2
    16    8   12 ar
    17    8   13 1
    18    9   10 1
    19    9   11 1
    20    9   20 1
    21    9   21 1
    22   10   11 1
    23   10   22 1
    24   10   23 1
    25   11   13 1
    26   11   24 1
