@<TRIPOS>MOLECULE
*****
   19    19     0     0     0
SMALL
NO_CHARGES

@<TRIPOS>ATOM
      1 C1         -1.5126   -1.3012   -1.2743 C.2       1 <0>         0.0000
      2 C2         -1.9392   -2.6133   -1.6426 C.2       1 <0>         0.0000
      3 C3         -0.4246   -1.1053   -0.4685 C.2       1 <0>         0.0000
      4 C4         -1.2361   -3.6849   -1.1670 C.2       1 <0>         0.0000
      5 C5          0.3619   -2.2220    0.0324 C.2       1 <0>         0.0000
      6 C6         -1.6637   -5.0921   -1.4734 C.2       1 <0>         0.0000
      7 C7         -1.7326   -7.4180   -0.7022 C.3       1 <0>         0.0000
      8 N1         -0.1403   -3.4798   -0.3620 N.am      1 <0>         0.0000
      9 N2         -1.2909   -6.0337   -0.5433 N.am      1 <0>         0.0000
     10 O1          1.3787   -2.1548    0.7253 O.2       1 <0>         0.0000
     11 O2         -2.2814   -5.3684   -2.4977 O.2       1 <0>         0.0000
     12 H1         -2.0700   -0.4432   -1.6427 H         1 <0>         0.0000
     13 H2         -2.8008   -2.7899   -2.2745 H         1 <0>         0.0000
     14 H3         -0.0857   -0.1146   -0.1849 H         1 <0>         0.0000
     15 H4         -2.8117   -7.5233   -0.5416 H         1 <0>         0.0000
     16 H5         -1.1933   -8.0437    0.0119 H         1 <0>         0.0000
     17 H6         -1.5045   -7.7494   -1.7160 H         1 <0>         0.0000
     18 H7          0.4584   -4.2619   -0.1132 H         1 <0>         0.0000
     19 H8         -1.1300   -5.7112    0.4037 H         1 <0>         0.0000
@<TRIPOS>BOND
     1    1    3 2
     2    1    2 1
     3    1   12 1
     4    2    4 2
     5    2   13 1
     6    3    5 1
     7    3   14 1
     8    4    6 1
     9    4    8 1
    10    5    8 am
    11    5   10 2
    12    6    9 am
    13    6   11 2
    14    7    9 1
    15    7   15 1
    16    7   16 1
    17    7   17 1
    18    8   18 1
    19    9   19 1
