@<TRIPOS>MOLECULE
*****
   44    46     0     0     0
SMALL
NO_CHARGES

@<TRIPOS>ATOM
      1 C1          1.3328    0.0171    0.9208 C.ar      1 <0>         0.0000
      2 C2          1.2327   -1.7223   -2.3850 C.ar      1 <0>         0.0000
      3 C3          1.4767    0.0246   -4.0383 C.ar      1 <0>         0.0000
      4 C4          1.5280   -0.7557    2.0608 C.ar      1 <0>         0.0000
      5 C5          2.3300   -2.3939   -2.9219 C.ar      1 <0>         0.0000
      6 C6          2.5755   -0.6372   -4.5892 C.ar      1 <0>         0.0000
      7 C7         -0.7878   -1.4522    1.9044 C.ar      1 <0>         0.0000
      8 C8          0.1054    0.0461    0.2365 C.ar      1 <0>         0.0000
      9 C9          0.7858   -0.5115   -2.9422 C.ar      1 <0>         0.0000
     10 C10        -0.9868   -0.6908    0.7494 C.ar      1 <0>         0.0000
     11 C11         0.4502   -1.5059    2.5567 C.ar      1 <0>         0.0000
     12 C12         2.9842   -1.8485   -4.0291 C.ar      1 <0>         0.0000
     13 C13         0.1058    0.8621   -1.0156 C.2       1 <0>         0.0000
     14 C14        -2.4094   -0.6464    0.2103 C.3       1 <0>         0.0000
     15 C15        -2.6344   -0.0324   -1.1755 C.3       1 <0>         0.0000
     16 C16        -1.6674   -0.6031   -2.2215 C.3       1 <0>         0.0000
     17 C17        -0.3866    0.2429   -2.3381 C.3       1 <0>         0.0000
     18 C18         1.7388   -2.3721    4.3776 C.3       1 <0>         0.0000
     19 C19         3.6185   -3.7754   -5.9939 C.3       1 <0>         0.0000
     20 O1          0.6282    1.9691   -1.0434 O.2       1 <0>         0.0000
     21 O2          5.2247   -1.7377   -5.4479 O.2       1 <0>         0.0000
     22 O3          4.9504   -3.6033   -3.7078 O.2       1 <0>         0.0000
     23 O4          0.5060   -2.3038    3.6620 O.3       1 <0>         0.0000
     24 S1          4.3864   -2.7190   -4.7407 S.o2      1 <0>         0.0000
     25 H1          2.1555    0.6028    0.5224 H         1 <0>         0.0000
     26 H2          0.7367   -2.1344   -1.5114 H         1 <0>         0.0000
     27 H3          1.1604    0.9766   -4.4558 H         1 <0>         0.0000
     28 H4          2.5001   -0.7689    2.5397 H         1 <0>         0.0000
     29 H5          2.6954   -3.3155   -2.4786 H         1 <0>         0.0000
     30 H6          3.1258   -0.2130   -5.4237 H         1 <0>         0.0000
     31 H7         -1.6118   -2.0162    2.3345 H         1 <0>         0.0000
     32 H8         -2.7885   -1.6755    0.1948 H         1 <0>         0.0000
     33 H9         -3.0283   -0.1142    0.9436 H         1 <0>         0.0000
     34 H10        -3.6717   -0.2329   -1.4636 H         1 <0>         0.0000
     35 H11        -2.5390    1.0598   -1.1341 H         1 <0>         0.0000
     36 H12        -1.4279   -1.6396   -1.9639 H         1 <0>         0.0000
     37 H13        -2.1327   -0.6363   -3.2120 H         1 <0>         0.0000
     38 H14        -0.5974    1.1069   -2.9740 H         1 <0>         0.0000
     39 H15         1.5592   -3.0489    5.2136 H         1 <0>         0.0000
     40 H16         2.0306   -1.3876    4.7620 H         1 <0>         0.0000
     41 H17         2.5422   -2.7747    3.7494 H         1 <0>         0.0000
     42 H18         4.4327   -4.3328   -6.4621 H         1 <0>         0.0000
     43 H19         2.9194   -4.4545   -5.5041 H         1 <0>         0.0000
     44 H20         3.1133   -3.1448   -6.7267 H         1 <0>         0.0000
@<TRIPOS>BOND
     1    1    4 ar
     2    1    8 ar
     3    1   25 1
     4    2    5 ar
     5    2    9 ar
     6    2   26 1
     7    3    6 ar
     8    3    9 ar
     9    3   27 1
    10    4   11 ar
    11    4   28 1
    12    5   12 ar
    13    5   29 1
    14    6   12 ar
    15    6   30 1
    16    7   10 ar
    17    7   11 ar
    18    7   31 1
    19    8   10 ar
    20    8   13 1
    21    9   17 1
    22   10   14 1
    23   11   23 1
    24   12   24 1
    25   13   17 1
    26   13   20 2
    27   14   15 1
    28   14   32 1
    29   14   33 1
    30   15   16 1
    31   15   34 1
    32   15   35 1
    33   16   17 1
    34   16   36 1
    35   16   37 1
    36   17   38 1
    37   18   23 1
    38   18   39 1
    39   18   40 1
    40   18   41 1
    41   19   24 1
    42   19   42 1
    43   19   43 1
    44   19   44 1
    45   21   24 2
    46   22   24 2
