@<TRIPOS>MOLECULE
*****
   35    37     0     0     0
SMALL
NO_CHARGES

@<TRIPOS>ATOM
      1 C1         -2.7059    1.2503    2.7298 C.ar      1 <0>         0.0000
      2 C2          1.3753    1.8426   -0.0548 C.ar      1 <0>         0.0000
      3 C3         -3.5369    1.4830    3.8256 C.ar      1 <0>         0.0000
      4 C4          2.4115    2.0877   -0.9528 C.ar      1 <0>         0.0000
      5 C5         -2.9283   -1.1276    3.0270 C.ar      1 <0>         0.0000
      6 C6          2.0463   -0.1104   -1.8891 C.ar      1 <0>         0.0000
      7 C7         -2.3682   -0.0518    2.3108 C.ar      1 <0>         0.0000
      8 C8          0.6396    0.6402   -0.0504 C.ar      1 <0>         0.0000
      9 C9          1.0095   -0.3582   -0.9879 C.ar      1 <0>         0.0000
     10 C10         2.7475    1.1001   -1.8832 C.ar      1 <0>         0.0000
     11 C11        -4.0709    0.4105    4.5444 C.ar      1 <0>         0.0000
     12 C12        -3.7480   -0.8781    4.1136 C.ar      1 <0>         0.0000
     13 C13        -0.4214    0.5392    0.9602 C.2       1 <0>         0.0000
     14 C14        -1.4750   -0.2949    1.1432 C.2       1 <0>         0.0000
     15 C15         0.3129   -1.6953   -1.0383 C.3       1 <0>         0.0000
     16 C16        -1.8733   -1.4715    0.2764 C.3       1 <0>         0.0000
     17 C17        -1.2194   -1.5851   -1.0986 C.3       1 <0>         0.0000
     18 O1          3.7542    1.2538   -2.8056 O.3       1 <0>         0.0000
     19 O2         -4.8897    0.6360    5.6171 O.3       1 <0>         0.0000
     20 F1         -4.2822   -1.9221    4.8245 F         1 <0>         0.0000
     21 H1         -2.3360    2.1017    2.1672 H         1 <0>         0.0000
     22 H2          1.1197    2.6149    0.6669 H         1 <0>         0.0000
     23 H3         -3.7967    2.4930    4.1291 H         1 <0>         0.0000
     24 H4          2.9499    3.0337   -0.9267 H         1 <0>         0.0000
     25 H5         -2.7189   -2.1600    2.7681 H         1 <0>         0.0000
     26 H6          2.3339   -0.8667   -2.6145 H         1 <0>         0.0000
     27 H7         -0.3234    1.3137    1.7187 H         1 <0>         0.0000
     28 H8          0.6794   -2.2478   -1.9084 H         1 <0>         0.0000
     29 H9          0.5936   -2.2864   -0.1557 H         1 <0>         0.0000
     30 H10        -1.6731   -2.4012    0.8282 H         1 <0>         0.0000
     31 H11        -2.9628   -1.4421    0.1498 H         1 <0>         0.0000
     32 H12        -1.5013   -0.7312   -1.7246 H         1 <0>         0.0000
     33 H13        -1.6261   -2.4786   -1.5856 H         1 <0>         0.0000
     34 H14         4.1550    2.1302   -2.6918 H         1 <0>         0.0000
     35 H15        -5.1631   -0.2242    5.9789 H         1 <0>         0.0000
@<TRIPOS>BOND
     1    1    3 ar
     2    1    7 ar
     3    1   21 1
     4    2    4 ar
     5    2    8 ar
     6    2   22 1
     7    3   11 ar
     8    3   23 1
     9    4   10 ar
    10    4   24 1
    11    5    7 ar
    12    5   12 ar
    13    5   25 1
    14    6    9 ar
    15    6   10 ar
    16    6   26 1
    17    7   14 1
    18    8    9 ar
    19    8   13 1
    20    9   15 1
    21   10   18 1
    22   11   12 ar
    23   11   19 1
    24   12   20 1
    25   13   14 2
    26   13   27 1
    27   14   16 1
    28   15   17 1
    29   15   28 1
    30   15   29 1
    31   16   17 1
    32   16   30 1
    33   16   31 1
    34   17   32 1
    35   17   33 1
    36   18   34 1
    37   19   35 1
