@<TRIPOS>MOLECULE
*****
   30    31     0     0     0
SMALL
NO_CHARGES

@<TRIPOS>ATOM
      1 C1          5.3375   -1.0394    3.1328 C.ar      1 <0>         0.0000
      2 C2          4.5104   -2.1652    3.1531 C.ar      1 <0>         0.0000
      3 C3          5.2021   -0.0974    2.1044 C.ar      1 <0>         0.0000
      4 C4          3.5508   -2.3470    2.1496 C.ar      1 <0>         0.0000
      5 C5          4.2463   -0.2831    1.1045 C.ar      1 <0>         0.0000
      6 C6          3.4137   -1.4122    1.1177 C.ar      1 <0>         0.0000
      7 C7         -0.0159    1.1520    1.0668 C.3       1 <0>         0.0000
      8 C8         -0.7621    1.5215   -0.2222 C.3       1 <0>         0.0000
      9 C9          0.5656   -0.2624    1.0313 C.3       1 <0>         0.0000
     10 C10         0.1338    1.3996   -1.4583 C.3       1 <0>         0.0000
     11 C11         2.3911   -1.6090    0.0201 C.3       1 <0>         0.0000
     12 N1          1.5237   -0.4136   -0.0883 N.pl3     1 <0>         0.0000
     13 O1         -0.3932   -1.1967   -1.7078 O.2       1 <0>         0.0000
     14 O2          1.8186   -0.3497   -2.6259 O.2       1 <0>         0.0000
     15 S1          0.7624   -0.2879   -1.6097 S.o2      1 <0>         0.0000
     16 H1          6.0820   -0.8944    3.9114 H         1 <0>         0.0000
     17 H2          4.6071   -2.8991    3.9491 H         1 <0>         0.0000
     18 H3          5.8447    0.7793    2.0833 H         1 <0>         0.0000
     19 H4          2.9046   -3.2220    2.1714 H         1 <0>         0.0000
     20 H5          4.1326    0.4474    0.3078 H         1 <0>         0.0000
     21 H6          0.8037    1.8600    1.2363 H         1 <0>         0.0000
     22 H7         -0.6979    1.2301    1.9202 H         1 <0>         0.0000
     23 H8         -1.6339    0.8722   -0.3532 H         1 <0>         0.0000
     24 H9         -1.1308    2.5513   -0.1647 H         1 <0>         0.0000
     25 H10         1.1335   -0.4490    1.9459 H         1 <0>         0.0000
     26 H11        -0.2306   -1.0183    0.9662 H         1 <0>         0.0000
     27 H12        -0.4099    1.5828   -2.3888 H         1 <0>         0.0000
     28 H13         1.0131    2.0461   -1.4150 H         1 <0>         0.0000
     29 H14         2.8959   -1.7308   -0.9414 H         1 <0>         0.0000
     30 H15         1.7965   -2.5135    0.2060 H         1 <0>         0.0000
@<TRIPOS>BOND
     1    1    3 ar
     2    1    2 ar
     3    1   16 1
     4    2    4 ar
     5    2   17 1
     6    3    5 ar
     7    3   18 1
     8    4    6 ar
     9    4   19 1
    10    5    6 ar
    11    5   20 1
    12    6   11 1
    13    7    8 1
    14    7    9 1
    15    7   21 1
    16    7   22 1
    17    8   10 1
    18    8   23 1
    19    8   24 1
    20    9   12 1
    21    9   25 1
    22    9   26 1
    23   10   15 1
    24   10   27 1
    25   10   28 1
    26   11   12 1
    27   11   29 1
    28   11   30 1
    29   12   15 1
    30   13   15 2
    31   14   15 2
