@<TRIPOS>MOLECULE
*****
   18    18     0     0     0
SMALL
NO_CHARGES

@<TRIPOS>ATOM
      1 C1         -0.8274   -0.5459    1.8456 C.2       1 <0>         0.0000
      2 C2         -0.4220   -0.6601    0.5439 C.2       1 <0>         0.0000
      3 C3         -1.1451   -1.6889    2.6422 C.2       1 <0>         0.0000
      4 C4         -0.2931   -1.9555   -0.1002 C.2       1 <0>         0.0000
      5 C5         -1.0215   -2.9093    2.0513 C.2       1 <0>         0.0000
      6 C6         -0.3286   -4.7517    3.3715 C.2       1 <0>         0.0000
      7 C7         -0.8770   -5.9824    4.0404 C.3       1 <0>         0.0000
      8 N1         -0.6225   -3.0351    0.7563 N.am      1 <0>         0.0000
      9 O1          0.0534   -2.1811   -1.2597 O.2       1 <0>         0.0000
     10 O2          0.8066   -4.3505    3.3914 O.2       1 <0>         0.0000
     11 O3         -1.3496   -4.0952    2.6846 O.3       1 <0>         0.0000
     12 H1         -0.9131    0.4402    2.2953 H         1 <0>         0.0000
     13 H2         -0.1814    0.2052   -0.0637 H         1 <0>         0.0000
     14 H3         -1.4643   -1.6127    3.6739 H         1 <0>         0.0000
     15 H4         -1.6634   -5.7000    4.7462 H         1 <0>         0.0000
     16 H5         -0.0727   -6.4992    4.5621 H         1 <0>         0.0000
     17 H6         -1.3284   -6.6427    3.2946 H         1 <0>         0.0000
     18 H7         -0.5417   -3.9605    0.3457 H         1 <0>         0.0000
@<TRIPOS>BOND
     1    1    2 2
     2    1    3 1
     3    1   12 1
     4    2    4 1
     5    2   13 1
     6    3    5 2
     7    3   14 1
     8    4    8 am
     9    4    9 2
    10    5    8 1
    11    5   11 1
    12    6    7 1
    13    6   10 2
    14    6   11 1
    15    7   15 1
    16    7   16 1
    17    7   17 1
    18    8   18 1
