@<TRIPOS>MOLECULE
*****
   28    30     0     0     0
SMALL
NO_CHARGES

@<TRIPOS>ATOM
      1 C1         -0.1989   -1.4675   -2.6492 C.ar      1 <0>         0.0000
      2 C2          0.7042    1.9049    2.7438 C.ar      1 <0>         0.0000
      3 C3          0.8726    1.2794    1.5062 C.ar      1 <0>         0.0000
      4 C4          0.0209   -2.1453   -3.8483 C.ar      1 <0>         0.0000
      5 C5         -1.3491    0.2943    1.6535 C.ar      1 <0>         0.0000
      6 C6          0.3537   -0.0365   -4.9793 C.ar      1 <0>         0.0000
      7 C7         -0.1424   -0.0741   -2.6151 C.ar      1 <0>         0.0000
      8 C8         -0.4910    1.7067    3.4041 C.ar      1 <0>         0.0000
      9 C9         -1.4901    0.9230    2.8735 C.ar      1 <0>         0.0000
     10 C10        -0.1481    0.4787    0.9641 C.ar      1 <0>         0.0000
     11 C11         0.1339    0.6413   -3.7802 C.ar      1 <0>         0.0000
     12 C12         0.2972   -1.4298   -5.0133 C.ar      1 <0>         0.0000
     13 C13        -0.3754    0.6446   -1.3364 C.2       1 <0>         0.0000
     14 C14        -2.1588    1.6916    4.7825 C.3       1 <0>         0.0000
     15 O1         -0.8593    1.7651   -1.2775 O.2       1 <0>         0.0000
     16 O2         -0.8328    2.2326    4.6117 O.3       1 <0>         0.0000
     17 O3         -2.5825    0.8600    3.6827 O.3       1 <0>         0.0000
     18 O4          0.0373   -0.1221   -0.2446 O.3       1 <0>         0.0000
     19 F1          0.1915    1.9806   -3.7585 F         1 <0>         0.0000
     20 Cl1         0.5688   -2.2663   -6.4928 Cl        1 <0>         0.0000
     21 H1         -0.4143   -2.0352   -1.7476 H         1 <0>         0.0000
     22 H2          1.4887    2.5232    3.1651 H         1 <0>         0.0000
     23 H3          1.8030    1.4157    0.9605 H         1 <0>         0.0000
     24 H4         -0.0259   -3.2312   -3.8593 H         1 <0>         0.0000
     25 H5         -2.1424   -0.3213    1.2438 H         1 <0>         0.0000
     26 H6          0.5678    0.5346   -5.8789 H         1 <0>         0.0000
     27 H7         -2.1787    1.0948    5.7016 H         1 <0>         0.0000
     28 H8         -2.8661    2.5224    4.8868 H         1 <0>         0.0000
@<TRIPOS>BOND
     1    1    4 ar
     2    1    7 ar
     3    1   21 1
     4    2    3 ar
     5    2    8 ar
     6    2   22 1
     7    3   10 ar
     8    3   23 1
     9    4   12 ar
    10    4   24 1
    11    5    9 ar
    12    5   10 ar
    13    5   25 1
    14    6   11 ar
    15    6   12 ar
    16    6   26 1
    17    7   11 ar
    18    7   13 1
    19    8    9 ar
    20    8   16 1
    21    9   17 1
    22   10   18 1
    23   11   19 1
    24   12   20 1
    25   13   15 2
    26   13   18 1
    27   14   16 1
    28   14   17 1
    29   14   27 1
    30   14   28 1
