@<TRIPOS>MOLECULE
*****
   52    54     0     0     0
SMALL
NO_CHARGES

@<TRIPOS>ATOM
      1 C1          2.4730   -6.7224   -6.0390 C.ar      1 <0>         0.0000
      2 C2          2.5228   -7.9457   -5.3747 C.ar      1 <0>         0.0000
      3 C3          2.1888   -5.5517   -5.3321 C.ar      1 <0>         0.0000
      4 C4          2.2766   -8.0020   -4.0054 C.ar      1 <0>         0.0000
      5 C5          1.9378   -5.5885   -3.9519 C.ar      1 <0>         0.0000
      6 C6          1.9659   -6.8325   -3.3066 C.ar      1 <0>         0.0000
      7 C7         -0.3850   -2.1466   -3.4395 C.2       1 <0>         0.0000
      8 C8          1.7117   -4.3014   -3.1919 C.3       1 <0>         0.0000
      9 C9         -1.9828    0.6547   -1.7839 C.3       1 <0>         0.0000
     10 C10        -0.6395   -0.0016   -2.1040 C.3       1 <0>         0.0000
     11 C11         0.3338   -5.0513   -1.3207 C.3       1 <0>         0.0000
     12 C12        -1.1894   -0.0647   -4.5084 C.3       1 <0>         0.0000
     13 C13         0.4049   -6.5437   -1.6325 C.3       1 <0>         0.0000
     14 C14        -2.5917    0.5622   -4.2824 C.3       1 <0>         0.0000
     15 C15        -2.5584    1.4444   -2.9809 C.3       1 <0>         0.0000
     16 C16        -3.6377   -0.5720   -4.1869 C.3       1 <0>         0.0000
     17 C17        -2.9290    1.3958   -5.5392 C.3       1 <0>         0.0000
     18 C18        -3.9217    2.0265   -2.5802 C.3       1 <0>         0.0000
     19 C19         0.1021   -2.8258   -2.1845 C.3       1 <0>         0.0000
     20 N1         -0.7243   -0.7979   -3.3296 N.am      1 <0>         0.0000
     21 N2          0.3955   -4.2199   -2.5359 N.3       1 <0>         0.0000
     22 O1         -0.4648   -2.7978   -4.4844 O.2       1 <0>         0.0000
     23 O2          1.7359   -6.9522   -1.9610 O.3       1 <0>         0.0000
     24 O3         -1.6701    2.5559   -3.1846 O.3       1 <0>         0.0000
     25 H1          2.6661   -6.6767   -7.1069 H         1 <0>         0.0000
     26 H2          2.7535   -8.8538   -5.9239 H         1 <0>         0.0000
     27 H3          2.1769   -4.6065   -5.8696 H         1 <0>         0.0000
     28 H4          2.3153   -8.9580   -3.4903 H         1 <0>         0.0000
     29 H5          2.5290   -4.1561   -2.4788 H         1 <0>         0.0000
     30 H6          1.7866   -3.4801   -3.9115 H         1 <0>         0.0000
     31 H7         -2.6906   -0.1151   -1.4536 H         1 <0>         0.0000
     32 H8         -1.8300    1.3313   -0.9330 H         1 <0>         0.0000
     33 H9          0.1317    0.7605   -2.2676 H         1 <0>         0.0000
     34 H10        -0.3183   -0.5972   -1.2476 H         1 <0>         0.0000
     35 H11        -0.6278   -4.8752   -0.8309 H         1 <0>         0.0000
     36 H12         1.1286   -4.7740   -0.6232 H         1 <0>         0.0000
     37 H13        -1.2034   -0.7220   -5.3853 H         1 <0>         0.0000
     38 H14        -0.4425    0.7127   -4.7138 H         1 <0>         0.0000
     39 H15         0.1334   -7.0983   -0.7265 H         1 <0>         0.0000
     40 H16        -0.3214   -6.8426   -2.4017 H         1 <0>         0.0000
     41 H17        -4.6155   -0.1347   -4.0293 H         1 <0>         0.0000
     42 H18        -3.3812   -1.2163   -3.3556 H         1 <0>         0.0000
     43 H19        -3.6281   -1.1364   -5.1107 H         1 <0>         0.0000
     44 H20        -3.9049    1.8466   -5.4099 H         1 <0>         0.0000
     45 H21        -2.9340    0.7426   -6.4027 H         1 <0>         0.0000
     46 H22        -2.1779    2.1662   -5.6613 H         1 <0>         0.0000
     47 H23        -4.3356    2.5840   -3.4152 H         1 <0>         0.0000
     48 H24        -3.7951    2.6885   -1.7287 H         1 <0>         0.0000
     49 H25        -4.5954    1.2173   -2.3142 H         1 <0>         0.0000
     50 H26        -0.6851   -2.7648   -1.4389 H         1 <0>         0.0000
     51 H27         0.9944   -2.3090   -1.8438 H         1 <0>         0.0000
     52 H28        -1.6857    3.0608   -2.3607 H         1 <0>         0.0000
@<TRIPOS>BOND
     1    1    2 ar
     2    1    3 ar
     3    1   25 1
     4    2    4 ar
     5    2   26 1
     6    3    5 ar
     7    3   27 1
     8    4    6 ar
     9    4   28 1
    10    5    6 ar
    11    5    8 1
    12    6   23 1
    13    7   19 1
    14    7   20 am
    15    7   22 2
    16    8   21 1
    17    8   29 1
    18    8   30 1
    19    9   10 1
    20    9   15 1
    21    9   31 1
    22    9   32 1
    23   10   20 1
    24   10   33 1
    25   10   34 1
    26   11   13 1
    27   11   21 1
    28   11   35 1
    29   11   36 1
    30   12   14 1
    31   12   20 1
    32   12   37 1
    33   12   38 1
    34   13   23 1
    35   13   39 1
    36   13   40 1
    37   14   15 1
    38   14   16 1
    39   14   17 1
    40   15   18 1
    41   15   24 1
    42   16   41 1
    43   16   42 1
    44   16   43 1
    45   17   44 1
    46   17   45 1
    47   17   46 1
    48   18   47 1
    49   18   48 1
    50   18   49 1
    51   19   21 1
    52   19   50 1
    53   19   51 1
    54   24   52 1
