@<TRIPOS>MOLECULE
*****
   31    32     0     0     0
SMALL
NO_CHARGES

@<TRIPOS>ATOM
      1 C1          1.5852   -0.2315    2.4051 C.ar      1 <0>         0.0000
      2 C2          1.0040   -0.8518    1.2954 C.ar      1 <0>         0.0000
      3 C3          8.2268   -6.6514    4.6817 C.ar      1 <0>         0.0000
      4 C4          7.4790   -7.0507    5.7939 C.ar      1 <0>         0.0000
      5 C5          2.8090   -0.6928    2.8977 C.ar      1 <0>         0.0000
      6 C6          1.6627   -1.9137    0.6683 C.ar      1 <0>         0.0000
      7 C7          7.7942   -5.5579    3.9354 C.ar      1 <0>         0.0000
      8 C8          6.3346   -6.3140    6.1097 C.ar      1 <0>         0.0000
      9 C9          3.4735   -1.7549    2.2757 C.ar      1 <0>         0.0000
     10 C10         2.8988   -2.3573    1.1414 C.ar      1 <0>         0.0000
     11 C11         6.6306   -4.8855    4.3492 C.ar      1 <0>         0.0000
     12 C12         4.8584   -3.5052    3.2933 C.2       1 <0>         0.0000
     13 C13         4.5695   -2.9769   -0.3956 C.3       1 <0>         0.0000
     14 N1          5.9209   -5.2432    5.4219 N.ar      1 <0>         0.0000
     15 N2          4.7318   -2.2105    2.7551 N.am      1 <0>         0.0000
     16 N3          6.2027   -3.7415    3.6469 N.am      1 <0>         0.0000
     17 O1          3.9516   -4.2999    3.4070 O.2       1 <0>         0.0000
     18 O2          3.5367   -3.3987    0.5011 O.3       1 <0>         0.0000
     19 H1          1.0809    0.5938    2.9000 H         1 <0>         0.0000
     20 H2          0.0432   -0.5117    0.9185 H         1 <0>         0.0000
     21 H3          9.1234   -7.1921    4.3895 H         1 <0>         0.0000
     22 H4          7.7710   -7.9030    6.3998 H         1 <0>         0.0000
     23 H5          3.2470   -0.2400    3.7848 H         1 <0>         0.0000
     24 H6          1.2347   -2.4110   -0.1977 H         1 <0>         0.0000
     25 H7          8.3311   -5.2386    3.0455 H         1 <0>         0.0000
     26 H8          5.7237   -6.5869    6.9690 H         1 <0>         0.0000
     27 H9          5.0071   -3.8873   -0.8109 H         1 <0>         0.0000
     28 H10         5.3419   -2.4043    0.1320 H         1 <0>         0.0000
     29 H11         4.1561   -2.3648   -1.2078 H         1 <0>         0.0000
     30 H12         5.2899   -1.5097    3.2296 H         1 <0>         0.0000
     31 H13         6.8845   -3.3273    3.0239 H         1 <0>         0.0000
@<TRIPOS>BOND
     1    1    2 ar
     2    1    5 ar
     3    1   19 1
     4    2    6 ar
     5    2   20 1
     6    3    4 ar
     7    3    7 ar
     8    3   21 1
     9    4    8 ar
    10    4   22 1
    11    5    9 ar
    12    5   23 1
    13    6   10 ar
    14    6   24 1
    15    7   11 ar
    16    7   25 1
    17    8   14 ar
    18    8   26 1
    19    9   10 ar
    20    9   15 1
    21   10   18 1
    22   11   14 ar
    23   11   16 1
    24   12   15 am
    25   12   16 am
    26   12   17 2
    27   13   18 1
    28   13   27 1
    29   13   28 1
    30   13   29 1
    31   15   30 1
    32   16   31 1
