@<TRIPOS>MOLECULE
*****
   31    32     0     0     0
SMALL
NO_CHARGES

@<TRIPOS>ATOM
      1 C1         -0.0787   -3.3397    0.4005 C.ar      1 <0>         0.0000
      2 C2          3.4833   -2.8308   -0.6327 C.ar      1 <0>         0.0000
      3 C3         -0.5571   -2.0488    0.3693 C.ar      1 <0>         0.0000
      4 C4          3.9640   -4.1166   -0.6008 C.ar      1 <0>         0.0000
      5 C5          1.6039   -1.2253   -0.3248 C.ar      1 <0>         0.0000
      6 C6          1.7878   -4.9565    0.0978 C.ar      1 <0>         0.0000
      7 C7          2.1287   -2.5448   -0.3002 C.ar      1 <0>         0.0000
      8 C8          1.2749   -3.6296    0.0705 C.ar      1 <0>         0.0000
      9 C9          0.2869   -0.9605    0.0042 C.ar      1 <0>         0.0000
     10 C10         3.1097   -5.1953   -0.2321 C.ar      1 <0>         0.0000
     11 C11        -1.3861    0.6223   -1.0618 C.2       1 <0>         0.0000
     12 C12        -0.7232    0.9446    1.3603 C.3       1 <0>         0.0000
     13 C13         2.9144   -7.5502    0.1187 C.3       1 <0>         0.0000
     14 C14        -0.2651    0.4534   -0.0197 C.3       1 <0>         0.0000
     15 O1         -2.3496    1.3384   -0.9135 O.2       1 <0>         0.0000
     16 O2         -1.2093   -0.0580   -2.2278 O.3       1 <0>         0.0000
     17 O3          3.7088   -6.4226   -0.2404 O.3       1 <0>         0.0000
     18 H1         -0.7407   -4.1572    0.6769 H         1 <0>         0.0000
     19 H2          4.1431   -2.0138   -0.9151 H         1 <0>         0.0000
     20 H3         -1.5981   -1.8550    0.6170 H         1 <0>         0.0000
     21 H4          4.9954   -4.3453   -0.8523 H         1 <0>         0.0000
     22 H5          2.2661   -0.4077   -0.6059 H         1 <0>         0.0000
     23 H6          1.1201   -5.7629    0.3811 H         1 <0>         0.0000
     24 H7         -1.5364    0.3256    1.7487 H         1 <0>         0.0000
     25 H8          0.1111    0.8996    2.0659 H         1 <0>         0.0000
     26 H9         -1.0886    1.9716    1.2976 H         1 <0>         0.0000
     27 H10         3.5745   -8.4155    0.0487 H         1 <0>         0.0000
     28 H11         2.0711   -7.6773   -0.5711 H         1 <0>         0.0000
     29 H12         2.5381   -7.4599    1.1450 H         1 <0>         0.0000
     30 H13         0.5369    1.1168   -0.3710 H         1 <0>         0.0000
     31 H14        -0.4374   -0.6482   -2.1387 H         1 <0>         0.0000
@<TRIPOS>BOND
     1    1    3 ar
     2    1    8 ar
     3    1   18 1
     4    2    4 ar
     5    2    7 ar
     6    2   19 1
     7    3    9 ar
     8    3   20 1
     9    4   10 ar
    10    4   21 1
    11    5    7 ar
    12    5    9 ar
    13    5   22 1
    14    6    8 ar
    15    6   10 ar
    16    6   23 1
    17    7    8 ar
    18    9   14 1
    19   10   17 1
    20   11   14 1
    21   11   15 2
    22   11   16 1
    23   12   14 1
    24   12   24 1
    25   12   25 1
    26   12   26 1
    27   13   17 1
    28   13   27 1
    29   13   28 1
    30   13   29 1
    31   14   30 1
    32   16   31 1
