@<TRIPOS>MOLECULE
*****
   35    35     0     0     0
SMALL
NO_CHARGES

@<TRIPOS>ATOM
      1 C1         -0.9668   -1.5621   -0.6953 C.3       1 <0>         0.0000
      2 C2         -0.2203   -2.7903   -1.2857 C.3       1 <0>         0.0000
      3 C3          0.0045   -0.9950    0.3583 C.3       1 <0>         0.0000
      4 C4          1.1092   -2.8658   -0.5003 C.3       1 <0>         0.0000
      5 C5          1.6159   -4.2840   -0.2290 C.3       1 <0>         0.0000
      6 C6          1.9027   -7.5793   -3.7163 C.3       1 <0>         0.0000
      7 C7          2.3506   -8.3120   -4.9877 C.3       1 <0>         0.0000
      8 C8          1.9768   -5.0028   -1.5298 C.3       1 <0>         0.0000
      9 C9          3.0925   -7.3349   -2.7906 C.3       1 <0>         0.0000
     10 C10         1.2182   -8.5196   -5.9707 C.3       1 <0>         0.0000
     11 N1          0.7815   -2.1769    0.7545 N.3       1 <0>         0.0000
     12 O1          1.5056   -7.4837   -0.6472 O.2       1 <0>         0.0000
     13 O2          3.8587   -6.5138   -0.3827 O.2       1 <0>         0.0000
     14 F1          1.6440   -9.1706   -7.0811 F         1 <0>         0.0000
     15 F2          0.2071   -9.2502   -5.4392 F         1 <0>         0.0000
     16 F3          0.6825   -7.3392   -6.3812 F         1 <0>         0.0000
     17 S1          2.6180   -6.6652   -1.1633 S.o2      1 <0>         0.0000
     18 H1         -1.2184   -0.8175   -1.4550 H         1 <0>         0.0000
     19 H2         -1.8989   -1.8775   -0.2200 H         1 <0>         0.0000
     20 H3         -0.8005   -3.7049   -1.1265 H         1 <0>         0.0000
     21 H4         -0.0447   -2.6945   -2.3609 H         1 <0>         0.0000
     22 H5          0.6333   -0.2085   -0.0955 H         1 <0>         0.0000
     23 H6         -0.5085   -0.5614    1.2220 H         1 <0>         0.0000
     24 H7          1.8849   -2.3167   -1.0692 H         1 <0>         0.0000
     25 H8          0.8414   -4.8414    0.3054 H         1 <0>         0.0000
     26 H9          2.5000   -4.2456    0.4159 H         1 <0>         0.0000
     27 H10         1.4378   -6.6288   -3.9941 H         1 <0>         0.0000
     28 H11         1.1510   -8.1706   -3.1875 H         1 <0>         0.0000
     29 H12         3.1307   -7.7538   -5.5142 H         1 <0>         0.0000
     30 H13         2.7542   -9.2999   -4.7473 H         1 <0>         0.0000
     31 H14         1.1044   -5.1349   -2.1741 H         1 <0>         0.0000
     32 H15         2.7651   -4.4782   -2.0790 H         1 <0>         0.0000
     33 H16         3.6059   -8.2661   -2.5295 H         1 <0>         0.0000
     34 H17         3.8309   -6.6454   -3.2102 H         1 <0>         0.0000
     35 H18         1.6207   -1.9243    1.2723 H         1 <0>         0.0000
@<TRIPOS>BOND
     1    1    2 1
     2    1    3 1
     3    1   18 1
     4    1   19 1
     5    2    4 1
     6    2   20 1
     7    2   21 1
     8    3   11 1
     9    3   22 1
    10    3   23 1
    11    4    5 1
    12    4   11 1
    13    4   24 1
    14    5    8 1
    15    5   25 1
    16    5   26 1
    17    6    7 1
    18    6    9 1
    19    6   27 1
    20    6   28 1
    21    7   10 1
    22    7   29 1
    23    7   30 1
    24    8   17 1
    25    8   31 1
    26    8   32 1
    27    9   17 1
    28    9   33 1
    29    9   34 1
    30   10   14 1
    31   10   15 1
    32   10   16 1
    33   11   35 1
    34   12   17 2
    35   13   17 2
