@<TRIPOS>MOLECULE
*****
   30    32     0     0     0
SMALL
NO_CHARGES

@<TRIPOS>ATOM
      1 C1          1.7792    1.3515   -0.1351 C.ar      1 <0>         0.0000
      2 C2          4.4847    4.5301   -3.7122 C.ar      1 <0>         0.0000
      3 C3          0.3819    1.3905   -0.0283 C.ar      1 <0>         0.0000
      4 C4          5.8044    4.8259   -3.3557 C.ar      1 <0>         0.0000
      5 C5          2.4869    2.5427   -0.2533 C.ar      1 <0>         0.0000
      6 C6          3.4826    4.5804   -2.7440 C.ar      1 <0>         0.0000
      7 C7         -0.2831    2.6124   -0.0143 C.ar      1 <0>         0.0000
      8 C8          6.1131    5.1641   -2.0369 C.ar      1 <0>         0.0000
      9 C9          1.8376    3.7924   -0.2405 C.ar      1 <0>         0.0000
     10 C10         3.7640    4.9440   -1.4174 C.ar      1 <0>         0.0000
     11 C11         0.4303    3.8209   -0.1075 C.ar      1 <0>         0.0000
     12 C12         5.0969    5.2222   -1.0786 C.ar      1 <0>         0.0000
     13 C13         2.6344    5.0293   -0.4371 C.2       1 <0>         0.0000
     14 C14        -0.0038    6.2117    0.5133 C.2       1 <0>         0.0000
     15 C15         1.3852    6.2663    1.1357 C.3       1 <0>         0.0000
     16 N1          2.4335    6.1613    0.1306 N.2       1 <0>         0.0000
     17 N2         -0.3010    5.0222   -0.1418 N.am      1 <0>         0.0000
     18 O1         -0.8196    7.1190    0.5690 O.2       1 <0>         0.0000
     19 Cl1         5.5545    5.5913    0.5757 Cl        1 <0>         0.0000
     20 H1          2.3045    0.4010   -0.1365 H         1 <0>         0.0000
     21 H2          4.2393    4.2607   -4.7355 H         1 <0>         0.0000
     22 H3         -0.1879    0.4686    0.0499 H         1 <0>         0.0000
     23 H4          6.5972    4.7868   -4.0978 H         1 <0>         0.0000
     24 H5          3.5668    2.5212   -0.3652 H         1 <0>         0.0000
     25 H6          2.4556    4.3454   -3.0108 H         1 <0>         0.0000
     26 H7         -1.3664    2.6435    0.0775 H         1 <0>         0.0000
     27 H8          7.1362    5.3773   -1.7439 H         1 <0>         0.0000
     28 H9          1.4713    7.2259    1.6444 H         1 <0>         0.0000
     29 H10         1.4596    5.4581    1.8792 H         1 <0>         0.0000
     30 H11        -1.2787    4.9555   -0.4073 H         1 <0>         0.0000
@<TRIPOS>BOND
     1    1    3 ar
     2    1    5 ar
     3    1   20 1
     4    2    4 ar
     5    2    6 ar
     6    2   21 1
     7    3    7 ar
     8    3   22 1
     9    4    8 ar
    10    4   23 1
    11    5    9 ar
    12    5   24 1
    13    6   10 ar
    14    6   25 1
    15    7   11 ar
    16    7   26 1
    17    8   12 ar
    18    8   27 1
    19    9   11 ar
    20    9   13 1
    21   10   12 ar
    22   10   13 1
    23   11   17 1
    24   12   19 1
    25   13   16 2
    26   14   15 1
    27   14   17 am
    28   14   18 2
    29   15   16 1
    30   15   28 1
    31   15   29 1
    32   17   30 1
