@<TRIPOS>MOLECULE
*****
   19    19     0     0     0
SMALL
NO_CHARGES

@<TRIPOS>ATOM
      1 C1         -5.0679   -0.0784   -4.4858 C.2       1 <0>         0.0000
      2 C2         -4.0245   -0.5768   -3.6448 C.2       1 <0>         0.0000
      3 C3         -5.2443    1.2756   -4.4032 C.2       1 <0>         0.0000
      4 C4         -3.4095    0.4225   -2.9203 C.2       1 <0>         0.0000
      5 C5         -1.7479   -0.8421   -1.6505 C.2       1 <0>         0.0000
      6 C6         -0.6159   -0.8108   -0.6315 C.3       1 <0>         0.0000
      7 C7         -1.9317    1.6405   -1.3969 C.3       1 <0>         0.0000
      8 N1         -2.3510    0.3667   -1.9865 N.am      1 <0>         0.0000
      9 O1         -2.1004   -1.9082   -2.1463 O.2       1 <0>         0.0000
     10 S1         -4.1284    1.9895   -3.2828 S.3       1 <0>         0.0000
     11 H1         -5.6650   -0.7151   -5.1307 H         1 <0>         0.0000
     12 H2         -3.7372   -1.6137   -3.5717 H         1 <0>         0.0000
     13 H3         -5.9535    1.9051   -4.9244 H         1 <0>         0.0000
     14 H4         -0.9423   -0.4236    0.3388 H         1 <0>         0.0000
     15 H5          0.2319   -0.2085   -0.9731 H         1 <0>         0.0000
     16 H6         -0.2840   -1.8407   -0.5037 H         1 <0>         0.0000
     17 H7         -2.7623    2.1031   -0.8530 H         1 <0>         0.0000
     18 H8         -1.5949    2.3309   -2.1776 H         1 <0>         0.0000
     19 H9         -1.1128    1.4907   -0.7016 H         1 <0>         0.0000
@<TRIPOS>BOND
     1    1    2 1
     2    1    3 2
     3    1   11 1
     4    2    4 2
     5    2   12 1
     6    3   10 1
     7    3   13 1
     8    4    8 1
     9    4   10 1
    10    5    6 1
    11    5    8 am
    12    5    9 2
    13    6   14 1
    14    6   15 1
    15    6   16 1
    16    7    8 1
    17    7   17 1
    18    7   18 1
    19    7   19 1
