@<TRIPOS>MOLECULE
*****
   20    20     0     0     0
SMALL
NO_CHARGES

@<TRIPOS>ATOM
      1 C1          1.5673    0.4927    1.5707 C.2       1 <0>         0.0000
      2 C2          1.4451    0.3736    2.9445 C.2       1 <0>         0.0000
      3 C3          0.3421    0.0397    1.0220 C.2       1 <0>         0.0000
      4 C4         -0.5080   -0.3266    2.0627 C.2       1 <0>         0.0000
      5 C5         -1.8994   -0.8349    1.9739 C.2       1 <0>         0.0000
      6 C6         -0.2250   -0.4673    4.5966 C.3       1 <0>         0.0000
      7 C7         -4.1880   -0.6929    2.8510 C.3       1 <0>         0.0000
      8 N1          0.1954   -0.1077    3.2463 N.pl3     1 <0>         0.0000
      9 N2         -2.7705   -0.3522    2.9318 N.am      1 <0>         0.0000
     10 O1         -2.2528   -1.6394    1.1148 O.2       1 <0>         0.0000
     11 Cl1        -0.0376    0.0147   -0.6683 Cl        1 <0>         0.0000
     12 H1          2.4277    0.8516    1.0231 H         1 <0>         0.0000
     13 H2          2.1644    0.5710    3.7281 H         1 <0>         0.0000
     14 H3         -0.8386    0.3166    5.0528 H         1 <0>         0.0000
     15 H4         -0.7981   -1.3948    4.5807 H         1 <0>         0.0000
     16 H5          0.6662   -0.6124    5.2099 H         1 <0>         0.0000
     17 H6         -4.6787   -0.2174    1.9932 H         1 <0>         0.0000
     18 H7         -4.6809   -0.3776    3.7739 H         1 <0>         0.0000
     19 H8         -4.2894   -1.7735    2.7409 H         1 <0>         0.0000
     20 H9         -2.5371    0.5435    3.3414 H         1 <0>         0.0000
@<TRIPOS>BOND
     1    1    2 2
     2    1    3 1
     3    1   12 1
     4    2    8 1
     5    2   13 1
     6    3    4 2
     7    3   11 1
     8    4    5 1
     9    4    8 1
    10    5    9 am
    11    5   10 2
    12    6    8 1
    13    6   14 1
    14    6   15 1
    15    6   16 1
    16    7    9 1
    17    7   17 1
    18    7   18 1
    19    7   19 1
    20    9   20 1
