@<TRIPOS>MOLECULE
*****
   24    24     0     0     0
SMALL
NO_CHARGES

@<TRIPOS>ATOM
      1 C1          3.0140    3.1333   -4.7363 C.2       1 <0>         0.0000
      2 C2          4.0997    3.6059   -4.0154 C.2       1 <0>         0.0000
      3 C3          2.2623    2.2973   -3.8637 C.2       1 <0>         0.0000
      4 C4          2.8977    2.2880   -2.6185 C.2       1 <0>         0.0000
      5 C5          2.5550    1.5889   -1.3678 C.2       1 <0>         0.0000
      6 C6          2.7032    1.4771    1.0467 C.3       1 <0>         0.0000
      7 C7          2.6770    3.6859   -0.0211 C.3       1 <0>         0.0000
      8 C8          1.1631    0.2801   -4.4222 C.3       1 <0>         0.0000
      9 N1          4.0130    3.1094   -2.7413 N.pl3     1 <0>         0.0000
     10 N2          2.8821    2.2447   -0.1838 N.am      1 <0>         0.0000
     11 O1          2.0752    0.4512   -1.3642 O.2       1 <0>         0.0000
     12 O2          1.0796    1.7009   -4.1938 O.3       1 <0>         0.0000
     13 H1          2.7684    3.3641   -5.7643 H         1 <0>         0.0000
     14 H2          4.9225    4.2401   -4.3163 H         1 <0>         0.0000
     15 H3          3.3028    1.9370    1.8383 H         1 <0>         0.0000
     16 H4          3.0309    0.4500    0.8887 H         1 <0>         0.0000
     17 H5          1.6516    1.4564    1.3641 H         1 <0>         0.0000
     18 H6          1.7372    3.8780    0.5152 H         1 <0>         0.0000
     19 H7          2.6213    4.1827   -0.9882 H         1 <0>         0.0000
     20 H8          3.4962    4.1267    0.5589 H         1 <0>         0.0000
     21 H9          0.1543   -0.0383   -4.6937 H         1 <0>         0.0000
     22 H10         1.4920   -0.2331   -3.5156 H         1 <0>         0.0000
     23 H11         1.8498    0.0697   -5.2520 H         1 <0>         0.0000
     24 H12         4.7251    3.1931   -2.0292 H         1 <0>         0.0000
@<TRIPOS>BOND
     1    1    2 2
     2    1    3 1
     3    1   13 1
     4    2    9 1
     5    2   14 1
     6    3    4 2
     7    3   12 1
     8    4    5 1
     9    4    9 1
    10    5   10 am
    11    5   11 2
    12    6   10 1
    13    6   15 1
    14    6   16 1
    15    6   17 1
    16    7   10 1
    17    7   18 1
    18    7   19 1
    19    7   20 1
    20    8   12 1
    21    8   21 1
    22    8   22 1
    23    8   23 1
    24    9   24 1
