@<TRIPOS>MOLECULE
*****
   30    31     0     0     0
SMALL
NO_CHARGES

@<TRIPOS>ATOM
      1 C1         -5.8522    1.8164    1.3341 C.2       1 <0>         0.0000
      2 C2         -4.5736    2.3512    1.0038 C.2       1 <0>         0.0000
      3 C3         -6.0373    0.4673    1.2151 C.2       1 <0>         0.0000
      4 C4         -3.5444    1.5532    0.5708 C.2       1 <0>         0.0000
      5 C5         -3.7353    0.1159    0.4364 C.2       1 <0>         0.0000
      6 C6         -1.8025    2.8357   -2.1037 C.3       1 <0>         0.0000
      7 C7         -0.6712    0.8516   -1.3183 C.3       1 <0>         0.0000
      8 C8         -1.9391    2.2667   -3.5141 C.3       1 <0>         0.0000
      9 C9         -0.7778    0.1760   -2.6753 C.3       1 <0>         0.0000
     10 C10        -2.1696    2.0757    0.2366 C.3       1 <0>         0.0000
     11 N1         -5.0154   -0.3294    0.7797 N.am      1 <0>         0.0000
     12 N2         -1.7939    1.7515   -1.1501 N.3       1 <0>         0.0000
     13 N3         -0.8325    1.2526   -3.7532 N.4       1 <0>         0.0000
     14 O1         -2.8751   -0.6970    0.0590 O.2       1 <0>         0.0000
     15 H1         -6.6598    2.4492    1.6816 H         1 <0>         0.0000
     16 H2         -4.4101    3.4224    1.1096 H         1 <0>         0.0000
     17 H3         -6.9704   -0.0323    1.4528 H         1 <0>         0.0000
     18 H4         -0.9011    3.4800   -2.0486 H         1 <0>         0.0000
     19 H5         -2.6696    3.4788   -1.9304 H         1 <0>         0.0000
     20 H6         -0.7363    0.0643   -0.5663 H         1 <0>         0.0000
     21 H7          0.3112    1.3570   -1.2211 H         1 <0>         0.0000
     22 H8         -2.8796    1.7246   -3.6216 H         1 <0>         0.0000
     23 H9         -1.8530    3.0317   -4.2891 H         1 <0>         0.0000
     24 H10         0.0777   -0.4636   -2.9023 H         1 <0>         0.0000
     25 H11        -1.7077   -0.3904   -2.7412 H         1 <0>         0.0000
     26 H12        -1.4346    1.6259    0.9130 H         1 <0>         0.0000
     27 H13        -2.1273    3.1580    0.4049 H         1 <0>         0.0000
     28 H14        -5.1468   -1.3349    0.7106 H         1 <0>         0.0000
     29 H15         0.0694    1.7445   -3.7688 H         1 <0>         0.0000
     30 H16        -0.9463    0.8227   -4.6775 H         1 <0>         0.0000
@<TRIPOS>BOND
     1    1    2 1
     2    1    3 2
     3    1   15 1
     4    2    4 2
     5    2   16 1
     6    3   11 1
     7    3   17 1
     8    4    5 1
     9    4   10 1
    10    5   11 am
    11    5   14 2
    12    6    8 1
    13    6   12 1
    14    6   18 1
    15    6   19 1
    16    7    9 1
    17    7   12 1
    18    7   20 1
    19    7   21 1
    20    8   13 1
    21    8   22 1
    22    8   23 1
    23    9   13 1
    24    9   24 1
    25    9   25 1
    26   10   12 1
    27   10   26 1
    28   10   27 1
    29   11   28 1
    30   13   29 1
    31   13   30 1
