@<TRIPOS>MOLECULE
*****
   18    18     0     0     0
SMALL
NO_CHARGES

@<TRIPOS>ATOM
      1 C1          1.8581   -1.1068   -0.1253 C.ar      1 <0>         0.0000
      2 C2          0.8370   -0.4093    0.5288 C.ar      1 <0>         0.0000
      3 C3          2.8142   -1.7752    0.6349 C.ar      1 <0>         0.0000
      4 C4          0.7869   -0.3900    1.9206 C.ar      1 <0>         0.0000
      5 C5          2.7998   -1.7713    2.0437 C.ar      1 <0>         0.0000
      6 C6          1.7546   -1.0597    2.6873 C.ar      1 <0>         0.0000
      7 C7          3.8662   -2.4911    2.8099 C.2       1 <0>         0.0000
      8 C8          4.8395   -3.3689    2.0286 C.3       1 <0>         0.0000
      9 O1          3.9829   -2.3932    4.0244 O.2       1 <0>         0.0000
     10 O2          1.6872   -1.0398    4.0461 O.3       1 <0>         0.0000
     11 H1          1.9057   -1.1282   -1.2099 H         1 <0>         0.0000
     12 H2          0.0779    0.1188   -0.0422 H         1 <0>         0.0000
     13 H3          3.6021   -2.3131    0.1195 H         1 <0>         0.0000
     14 H4         -0.0112    0.1507    2.4279 H         1 <0>         0.0000
     15 H5          5.4639   -2.7664    1.3597 H         1 <0>         0.0000
     16 H6          4.3169   -4.1111    1.4164 H         1 <0>         0.0000
     17 H7          5.4841   -3.8783    2.7457 H         1 <0>         0.0000
     18 H8          0.9017   -0.5304    4.3055 H         1 <0>         0.0000
@<TRIPOS>BOND
     1    1    2 ar
     2    1    3 ar
     3    1   11 1
     4    2    4 ar
     5    2   12 1
     6    3    5 ar
     7    3   13 1
     8    4    6 ar
     9    4   14 1
    10    5    6 ar
    11    5    7 1
    12    6   10 1
    13    7    8 1
    14    7    9 2
    15    8   15 1
    16    8   16 1
    17    8   17 1
    18   10   18 1
