@<TRIPOS>MOLECULE
*****
   31    32     0     0     0
SMALL
NO_CHARGES

@<TRIPOS>ATOM
      1 C1          0.5872   -1.7015    1.1422 C.ar      1 <0>         0.0000
      2 C2          0.7948   -0.3824    0.7456 C.ar      1 <0>         0.0000
      3 C3          5.2659   -7.2484    5.6061 C.ar      1 <0>         0.0000
      4 C4          6.5325   -7.1249    6.1886 C.ar      1 <0>         0.0000
      5 C5          1.5563   -2.3855    1.8871 C.ar      1 <0>         0.0000
      6 C6          1.9850    0.2732    1.0929 C.ar      1 <0>         0.0000
      7 C7          4.7084   -6.1746    4.9165 C.ar      1 <0>         0.0000
      8 C8          7.1936   -5.9042    6.0488 C.ar      1 <0>         0.0000
      9 C9          2.7473   -1.7424    2.2394 C.ar      1 <0>         0.0000
     10 C10         2.9532   -0.4009    1.8335 C.ar      1 <0>         0.0000
     11 C11         5.4658   -4.9916    4.8392 C.ar      1 <0>         0.0000
     12 C12         3.8533   -3.6013    3.5017 C.2       1 <0>         0.0000
     13 C13         4.4385    1.4894    1.8597 C.3       1 <0>         0.0000
     14 N1          6.6819   -4.8558    5.3918 N.ar      1 <0>         0.0000
     15 N2          3.7922   -2.3223    2.9822 N.am      1 <0>         0.0000
     16 N3          5.0449   -3.8269    4.1831 N.am      1 <0>         0.0000
     17 O1          2.9675   -4.4434    3.3811 O.2       1 <0>         0.0000
     18 O2          4.1579    0.1425    2.2307 O.3       1 <0>         0.0000
     19 H1         -0.3331   -2.2136    0.8758 H         1 <0>         0.0000
     20 H2          0.0420    0.1465    0.1680 H         1 <0>         0.0000
     21 H3          4.7099   -8.1791    5.6868 H         1 <0>         0.0000
     22 H4          6.9937   -7.9436    6.7323 H         1 <0>         0.0000
     23 H5          1.4018   -3.4092    2.1984 H         1 <0>         0.0000
     24 H6          2.1432    1.2999    0.7827 H         1 <0>         0.0000
     25 H7          3.7339   -6.2260    4.4514 H         1 <0>         0.0000
     26 H8          8.1811   -5.7544    6.4824 H         1 <0>         0.0000
     27 H9          5.4250    1.7141    2.2675 H         1 <0>         0.0000
     28 H10         3.7011    2.1788    2.2874 H         1 <0>         0.0000
     29 H11         4.4599    1.6026    0.7694 H         1 <0>         0.0000
     30 H12         4.5719   -1.6950    3.1366 H         1 <0>         0.0000
     31 H13         5.7389   -3.0902    4.2444 H         1 <0>         0.0000
@<TRIPOS>BOND
     1    1    2 ar
     2    1    5 ar
     3    1   19 1
     4    2    6 ar
     5    2   20 1
     6    3    4 ar
     7    3    7 ar
     8    3   21 1
     9    4    8 ar
    10    4   22 1
    11    5    9 ar
    12    5   23 1
    13    6   10 ar
    14    6   24 1
    15    7   11 ar
    16    7   25 1
    17    8   14 ar
    18    8   26 1
    19    9   10 ar
    20    9   15 1
    21   10   18 1
    22   11   14 ar
    23   11   16 1
    24   12   15 am
    25   12   16 am
    26   12   17 2
    27   13   18 1
    28   13   27 1
    29   13   28 1
    30   13   29 1
    31   15   30 1
    32   16   31 1
