@<TRIPOS>MOLECULE
*****
   18    18     0     0     0
SMALL
NO_CHARGES

@<TRIPOS>ATOM
      1 C1          2.3466   -0.8446    0.6152 C.2       1 <0>         0.0000
      2 C2          1.2008   -0.1392    0.1450 C.2       1 <0>         0.0000
      3 C3          2.9586   -1.6979   -0.2428 C.2       1 <0>         0.0000
      4 C4          0.7289   -0.3130   -1.1291 C.2       1 <0>         0.0000
      5 C5          1.4046   -1.2351   -2.0305 C.2       1 <0>         0.0000
      6 C6         -0.4915    0.4795   -1.5339 C.2       1 <0>         0.0000
      7 C7         -2.1171    1.0170   -3.2756 C.3       1 <0>         0.0000
      8 N1         -0.9482    0.2953   -2.7951 N.am      1 <0>         0.0000
      9 O1          1.1194   -1.5050   -3.1857 O.2       1 <0>         0.0000
     10 O2         -1.0255    1.2510   -0.7287 O.2       1 <0>         0.0000
     11 O3          2.5262   -1.8966   -1.5023 O.3       1 <0>         0.0000
     12 H1          2.7298   -0.7160    1.6207 H         1 <0>         0.0000
     13 H2          0.6662    0.5589    0.7837 H         1 <0>         0.0000
     14 H3          3.8358   -2.2957   -0.0168 H         1 <0>         0.0000
     15 H4         -2.9899    0.8007   -2.6520 H         1 <0>         0.0000
     16 H5         -2.3206    0.7068   -4.3021 H         1 <0>         0.0000
     17 H6         -1.9454    2.0979   -3.2515 H         1 <0>         0.0000
     18 H7         -0.4486   -0.3546   -3.3949 H         1 <0>         0.0000
@<TRIPOS>BOND
     1    1    2 1
     2    1    3 2
     3    1   12 1
     4    2    4 2
     5    2   13 1
     6    3   11 1
     7    3   14 1
     8    4    5 1
     9    4    6 1
    10    5    9 2
    11    5   11 1
    12    6    8 am
    13    6   10 2
    14    7    8 1
    15    7   15 1
    16    7   16 1
    17    7   17 1
    18    8   18 1
