@<TRIPOS>MOLECULE
*****
   17    17     0     0     0
SMALL
NO_CHARGES

@<TRIPOS>ATOM
      1 C1          1.8542   -1.0945   -0.1169 C.ar      1 <0>         0.0000
      2 C2          0.8400   -0.3908    0.5416 C.ar      1 <0>         0.0000
      3 C3          2.8197   -1.7697    0.6274 C.ar      1 <0>         0.0000
      4 C4          0.7991   -0.3678    1.9366 C.ar      1 <0>         0.0000
      5 C5          2.8160   -1.7616    2.0365 C.ar      1 <0>         0.0000
      6 C6          1.7779   -1.0439    2.6605 C.ar      1 <0>         0.0000
      7 C7          3.8786   -2.4766    2.8188 C.2       1 <0>         0.0000
      8 C8          4.8368   -3.3806    2.0550 C.3       1 <0>         0.0000
      9 O1          3.9912   -2.3445    4.0292 O.2       1 <0>         0.0000
     10 F1          1.6836   -0.9971    4.0010 F         1 <0>         0.0000
     11 H1          1.8904   -1.1166   -1.2021 H         1 <0>         0.0000
     12 H2          0.0798    0.1376   -0.0272 H         1 <0>         0.0000
     13 H3          3.5998   -2.3110    0.1034 H         1 <0>         0.0000
     14 H4          0.0222    0.1639    2.4775 H         1 <0>         0.0000
     15 H5          5.4648   -2.7970    1.3727 H         1 <0>         0.0000
     16 H6          4.3010   -4.1253    1.4577 H         1 <0>         0.0000
     17 H7          5.4783   -3.8854    2.7780 H         1 <0>         0.0000
@<TRIPOS>BOND
     1    1    2 ar
     2    1    3 ar
     3    1   11 1
     4    2    4 ar
     5    2   12 1
     6    3    5 ar
     7    3   13 1
     8    4    6 ar
     9    4   14 1
    10    5    6 ar
    11    5    7 1
    12    6   10 1
    13    7    8 1
    14    7    9 2
    15    8   15 1
    16    8   16 1
    17    8   17 1
