@<TRIPOS>MOLECULE
*****
   21    21     0     0     0
SMALL
NO_CHARGES

@<TRIPOS>ATOM
      1 C1          0.5348    1.4632   -0.8552 C.2       1 <0>         0.0000
      2 C2         -0.8201    1.2993   -0.7794 C.2       1 <0>         0.0000
      3 C3          1.4208    0.5141   -0.2730 C.2       1 <0>         0.0000
      4 C4         -1.4190    0.1652   -0.1071 C.2       1 <0>         0.0000
      5 C5          0.8671   -0.5584    0.3615 C.2       1 <0>         0.0000
      6 C6          1.9368   -1.4915    2.2594 C.2       1 <0>         0.0000
      7 C7          2.8483   -2.6212    2.6541 C.3       1 <0>         0.0000
      8 C8         -1.0199   -1.9374    1.1392 C.3       1 <0>         0.0000
      9 N1         -0.4801   -0.7617    0.4466 N.am      1 <0>         0.0000
     10 O1         -2.6298   -0.0418    0.0053 O.2       1 <0>         0.0000
     11 O2          1.4728   -0.6420    2.9782 O.2       1 <0>         0.0000
     12 O3          1.6728   -1.5525    0.8976 O.3       1 <0>         0.0000
     13 H1          0.9490    2.3301   -1.3638 H         1 <0>         0.0000
     14 H2         -1.5143    2.0104   -1.2129 H         1 <0>         0.0000
     15 H3          2.4982    0.6162   -0.3099 H         1 <0>         0.0000
     16 H4          2.3752   -3.5784    2.4161 H         1 <0>         0.0000
     17 H5          3.0570   -2.5626    3.7216 H         1 <0>         0.0000
     18 H6          3.7794   -2.5654    2.0834 H         1 <0>         0.0000
     19 H7         -0.9333   -1.8125    2.2221 H         1 <0>         0.0000
     20 H8         -0.4845   -2.8344    0.8244 H         1 <0>         0.0000
     21 H9         -2.0721   -2.0109    0.8722 H         1 <0>         0.0000
@<TRIPOS>BOND
     1    1    2 2
     2    1    3 1
     3    1   13 1
     4    2    4 1
     5    2   14 1
     6    3    5 2
     7    3   15 1
     8    4    9 am
     9    4   10 2
    10    5    9 1
    11    5   12 1
    12    6    7 1
    13    6   11 2
    14    6   12 1
    15    7   16 1
    16    7   17 1
    17    7   18 1
    18    8    9 1
    19    8   19 1
    20    8   20 1
    21    8   21 1
