@<TRIPOS>MOLECULE
*****
   28    29     0     0     0
SMALL
NO_CHARGES

@<TRIPOS>ATOM
      1 C1          4.0995   -0.6408    2.8528 C.1       1 <0>         0.0000
      2 C2          1.9496   -1.0701   -0.1677 C.ar      1 <0>         0.0000
      3 C3          0.7131   -1.3013    0.4492 C.ar      1 <0>         0.0000
      4 C4          0.0151   -1.3704    9.7763 C.ar      1 <0>         0.0000
      5 C5         -1.3552   -1.6349    9.6591 C.ar      1 <0>         0.0000
      6 C6          3.0699   -0.8516    0.6265 C.ar      1 <0>         0.0000
      7 C7          0.5753   -1.3184    1.8370 C.ar      1 <0>         0.0000
      8 C8          0.7771   -1.2325    8.6227 C.ar      1 <0>         0.0000
      9 C9         -1.8857   -1.7465    8.3742 C.ar      1 <0>         0.0000
     10 C10         2.9525   -0.8646    2.0261 C.ar      1 <0>         0.0000
     11 C11         1.6983   -1.0992    2.6533 C.ar      1 <0>         0.0000
     12 C12         0.1327   -1.3658    7.3742 C.ar      1 <0>         0.0000
     13 C13         0.5541   -1.3021    4.8795 C.2       1 <0>         0.0000
     14 N1          4.9780   -0.4685    3.6023 N.1       1 <0>         0.0000
     15 N2         -1.1685   -1.6171    7.2490 N.ar      1 <0>         0.0000
     16 N3          1.6658   -1.0961    4.0499 N.am      1 <0>         0.0000
     17 N4          0.9295   -1.2213    6.2230 N.am      1 <0>         0.0000
     18 O1         -0.5693   -1.5190    4.4688 O.2       1 <0>         0.0000
     19 H1          2.0349   -1.0610   -1.2499 H         1 <0>         0.0000
     20 H2         -0.1690   -1.4733   -0.1620 H         1 <0>         0.0000
     21 H3          0.4831   -1.2731   10.7523 H         1 <0>         0.0000
     22 H4         -1.9897   -1.7503   10.5323 H         1 <0>         0.0000
     23 H5          4.0437   -0.6692    0.1826 H         1 <0>         0.0000
     24 H6         -0.3851   -1.4981    2.2986 H         1 <0>         0.0000
     25 H7          1.8437   -1.0269    8.6810 H         1 <0>         0.0000
     26 H8         -2.9457   -1.9515    8.2310 H         1 <0>         0.0000
     27 H9          2.5620   -0.9229    4.4909 H         1 <0>         0.0000
     28 H10         1.9034   -1.0333    6.4206 H         1 <0>         0.0000
@<TRIPOS>BOND
     1    1   10 1
     2    1   14 3
     3    2    3 ar
     4    2    6 ar
     5    2   19 1
     6    3    7 ar
     7    3   20 1
     8    4    5 ar
     9    4    8 ar
    10    4   21 1
    11    5    9 ar
    12    5   22 1
    13    6   10 ar
    14    6   23 1
    15    7   11 ar
    16    7   24 1
    17    8   12 ar
    18    8   25 1
    19    9   15 ar
    20    9   26 1
    21   10   11 ar
    22   11   16 1
    23   12   15 ar
    24   12   17 1
    25   13   16 am
    26   13   17 am
    27   13   18 2
    28   16   27 1
    29   17   28 1
