@<TRIPOS>MOLECULE
*****
   24    24     0     0     0
SMALL
NO_CHARGES

@<TRIPOS>ATOM
      1 C1         -1.9693    3.8327    2.0687 C.ar      1 <0>         0.0000
      2 C2         -1.8314    3.6071    3.4490 C.ar      1 <0>         0.0000
      3 C3         -1.3571    2.9975    1.1430 C.ar      1 <0>         0.0000
      4 C4         -1.0763    2.5266    3.8844 C.ar      1 <0>         0.0000
      5 C5         -0.5834    1.8995    1.5648 C.ar      1 <0>         0.0000
      6 C6         -0.4644    1.6713    2.9543 C.ar      1 <0>         0.0000
      7 C7         -1.5790   -1.2825    3.1039 C.3       1 <0>         0.0000
      8 C8         -0.2774   -1.7162    5.1510 C.3       1 <0>         0.0000
      9 N1         -0.7584   -0.7123    4.1830 N.pl3     1 <0>         0.0000
     10 O1          1.1858   -0.3175    2.4708 O.2       1 <0>         0.0000
     11 O2          1.2409    0.7191    4.7880 O.2       1 <0>         0.0000
     12 O3         -0.0271    1.1351    0.5988 O.3       1 <0>         0.0000
     13 S1          0.4723    0.3086    3.6140 S.o2      1 <0>         0.0000
     14 H1         -2.5576    4.6752    1.7147 H         1 <0>         0.0000
     15 H2         -2.3043    4.2687    4.1680 H         1 <0>         0.0000
     16 H3         -1.4488    3.1687    0.0747 H         1 <0>         0.0000
     17 H4         -0.9465    2.3273    4.9437 H         1 <0>         0.0000
     18 H5         -1.9587   -0.4850    2.4617 H         1 <0>         0.0000
     19 H6         -2.4364   -1.7777    3.5662 H         1 <0>         0.0000
     20 H7         -1.0254   -2.0077    2.4935 H         1 <0>         0.0000
     21 H8          0.3221   -1.2242    5.9162 H         1 <0>         0.0000
     22 H9          0.3130   -2.5102    4.6741 H         1 <0>         0.0000
     23 H10        -1.1578   -2.1602    5.6227 H         1 <0>         0.0000
     24 H11         0.5653    0.4670    1.0174 H         1 <0>         0.0000
@<TRIPOS>BOND
     1    1    2 ar
     2    1    3 ar
     3    1   14 1
     4    2    4 ar
     5    2   15 1
     6    3    5 ar
     7    3   16 1
     8    4    6 ar
     9    4   17 1
    10    5    6 ar
    11    5   12 1
    12    6   13 1
    13    7    9 1
    14    7   18 1
    15    7   19 1
    16    7   20 1
    17    8    9 1
    18    8   21 1
    19    8   22 1
    20    8   23 1
    21    9   13 1
    22   10   13 2
    23   11   13 2
    24   12   24 1
