@<TRIPOS>MOLECULE
*****
   28    29     0     0     0
SMALL
NO_CHARGES

@<TRIPOS>ATOM
      1 C1          4.1127   -0.6365    2.8614 C.1       1 <0>         0.0000
      2 C2          1.9869   -1.0630   -0.1759 C.ar      1 <0>         0.0000
      3 C3          0.7453   -1.2963    0.4292 C.ar      1 <0>         0.0000
      4 C4         -2.0375   -1.7748    8.4270 C.ar      1 <0>         0.0000
      5 C5         -1.3651   -1.6379    9.6460 C.ar      1 <0>         0.0000
      6 C6          3.0998   -0.8450    0.6292 C.ar      1 <0>         0.0000
      7 C7          0.5959   -1.3156    1.8159 C.ar      1 <0>         0.0000
      8 C8         -1.3382   -1.6492    7.2283 C.ar      1 <0>         0.0000
      9 C9          0.0052   -1.3761    9.6065 C.ar      1 <0>         0.0000
     10 C10         2.9705   -0.8604    2.0277 C.ar      1 <0>         0.0000
     11 C11         1.7113   -1.0969    2.6420 C.ar      1 <0>         0.0000
     12 C12         0.0396   -1.3852    7.3108 C.ar      1 <0>         0.0000
     13 C13         0.5546   -1.3032    4.8568 C.2       1 <0>         0.0000
     14 N1          4.9931   -0.4633    3.6080 N.1       1 <0>         0.0000
     15 N2          0.7005   -1.2509    8.4696 N.ar      1 <0>         0.0000
     16 N3          1.6650   -1.0965    4.0399 N.am      1 <0>         0.0000
     17 N4          0.8850   -1.2311    6.1979 N.am      1 <0>         0.0000
     18 O1         -0.5757   -1.5221    4.4349 O.2       1 <0>         0.0000
     19 H1          2.0823   -1.0520   -1.2572 H         1 <0>         0.0000
     20 H2         -0.1311   -1.4679   -0.1901 H         1 <0>         0.0000
     21 H3         -3.1048   -1.9790    8.4052 H         1 <0>         0.0000
     22 H4         -1.8819   -1.7302   10.5962 H         1 <0>         0.0000
     23 H5          4.0773   -0.6611    0.1945 H         1 <0>         0.0000
     24 H6         -0.3682   -1.4968    2.2687 H         1 <0>         0.0000
     25 H7         -1.8185   -1.7477    6.2650 H         1 <0>         0.0000
     26 H8          0.5765   -1.2606   10.5260 H         1 <0>         0.0000
     27 H9          2.5539   -0.9236    4.4967 H         1 <0>         0.0000
     28 H10         1.8423   -1.0461    6.4790 H         1 <0>         0.0000
@<TRIPOS>BOND
     1    1   10 1
     2    1   14 3
     3    2    3 ar
     4    2    6 ar
     5    2   19 1
     6    3    7 ar
     7    3   20 1
     8    4    5 ar
     9    4    8 ar
    10    4   21 1
    11    5    9 ar
    12    5   22 1
    13    6   10 ar
    14    6   23 1
    15    7   11 ar
    16    7   24 1
    17    8   12 ar
    18    8   25 1
    19    9   15 ar
    20    9   26 1
    21   10   11 ar
    22   11   16 1
    23   12   15 ar
    24   12   17 1
    25   13   16 am
    26   13   17 am
    27   13   18 2
    28   16   27 1
    29   17   28 1
