@<TRIPOS>MOLECULE
*****
   20    20     0     0     0
SMALL
NO_CHARGES

@<TRIPOS>ATOM
      1 C1          1.3746    0.2314    1.3167 C.2       1 <0>         0.0000
      2 C2          1.2957    0.3291    2.6976 C.2       1 <0>         0.0000
      3 C3          0.2184   -0.4687    0.9143 C.2       1 <0>         0.0000
      4 C4         -0.5484   -0.7892    2.0431 C.2       1 <0>         0.0000
      5 C5         -1.8345   -1.5021    2.2312 C.2       1 <0>         0.0000
      6 C6         -0.2246   -0.3478    4.5458 C.3       1 <0>         0.0000
      7 C7         -3.7223   -2.6804    1.2148 C.3       1 <0>         0.0000
      8 N1          0.1520   -0.2776    3.1321 N.pl3     1 <0>         0.0000
      9 N2         -2.4546   -1.9718    1.1124 N.am      1 <0>         0.0000
     10 O1         -2.3295   -1.6676    3.3556 O.2       1 <0>         0.0000
     11 Cl1        -0.1338   -0.8412   -0.7558 Cl        1 <0>         0.0000
     12 H1          2.1593    0.6127    0.6783 H         1 <0>         0.0000
     13 H2          1.9769    0.7897    3.4000 H         1 <0>         0.0000
     14 H3         -1.1831    0.1426    4.7145 H         1 <0>         0.0000
     15 H4         -0.3116   -1.3844    4.8708 H         1 <0>         0.0000
     16 H5          0.5579    0.1572    5.1162 H         1 <0>         0.0000
     17 H6         -3.6213   -3.5734    1.8393 H         1 <0>         0.0000
     18 H7         -4.0354   -2.9767    0.2116 H         1 <0>         0.0000
     19 H8         -4.4932   -2.0431    1.6593 H         1 <0>         0.0000
     20 H9         -2.0384   -1.8243    0.2039 H         1 <0>         0.0000
@<TRIPOS>BOND
     1    1    2 2
     2    1    3 1
     3    1   12 1
     4    2    8 1
     5    2   13 1
     6    3    4 2
     7    3   11 1
     8    4    5 1
     9    4    8 1
    10    5    9 am
    11    5   10 2
    12    6    8 1
    13    6   14 1
    14    6   15 1
    15    6   16 1
    16    7    9 1
    17    7   17 1
    18    7   18 1
    19    7   19 1
    20    9   20 1
