@<TRIPOS>MOLECULE
*****
   31    32     0     0     0
SMALL
NO_CHARGES

@<TRIPOS>ATOM
      1 C1          2.1518   -1.1142   -0.0455 C.ar      1 <0>         0.0000
      2 C2          0.1978    2.8919    5.8895 C.ar      1 <0>         0.0000
      3 C3          3.2643   -1.3356    0.7695 C.ar      1 <0>         0.0000
      4 C4         -0.5307    1.7262    6.1372 C.ar      1 <0>         0.0000
      5 C5          0.8926   -0.9091    0.5250 C.ar      1 <0>         0.0000
      6 C6          1.4182    2.8271    5.2116 C.ar      1 <0>         0.0000
      7 C7          3.1053   -1.3387    2.1557 C.ar      1 <0>         0.0000
      8 C8         -0.0317    0.5017    5.6915 C.ar      1 <0>         0.0000
      9 C9          0.6971   -0.9170    1.9142 C.ar      1 <0>         0.0000
     10 C10         1.9525    1.6110    4.7601 C.ar      1 <0>         0.0000
     11 C11         1.8407   -1.1272    2.7107 C.ar      1 <0>         0.0000
     12 C12         1.1874    0.4542    5.0108 C.ar      1 <0>         0.0000
     13 C13        -0.6880   -0.7006    2.4752 C.3       1 <0>         0.0000
     14 C14         3.2811    1.5990    4.0426 C.3       1 <0>         0.0000
     15 O1          0.6958   -2.1459    4.8992 O.2       1 <0>         0.0000
     16 O2          3.1240   -1.3862    5.0132 O.2       1 <0>         0.0000
     17 S1          1.7511   -1.1926    4.5168 S.o2      1 <0>         0.0000
     18 H1          2.2601   -1.1050   -1.1270 H         1 <0>         0.0000
     19 H2         -0.1794    3.8538    6.2269 H         1 <0>         0.0000
     20 H3          4.2456   -1.5033    0.3346 H         1 <0>         0.0000
     21 H4         -1.4766    1.7662    6.6698 H         1 <0>         0.0000
     22 H5          0.0331   -0.7457   -0.1206 H         1 <0>         0.0000
     23 H6          1.9795    3.7408    5.0320 H         1 <0>         0.0000
     24 H7          3.9492   -1.5026    2.8178 H         1 <0>         0.0000
     25 H8         -0.5745   -0.4221    5.8627 H         1 <0>         0.0000
     26 H9         -0.9519   -1.4832    3.1896 H         1 <0>         0.0000
     27 H10        -0.7564    0.2570    3.0012 H         1 <0>         0.0000
     28 H11        -1.4250   -0.6941    1.6688 H         1 <0>         0.0000
     29 H12         3.9635    0.8711    4.4865 H         1 <0>         0.0000
     30 H13         3.1589    1.3302    2.9885 H         1 <0>         0.0000
     31 H14         3.7421    2.5886    4.0855 H         1 <0>         0.0000
@<TRIPOS>BOND
     1    1    3 ar
     2    1    5 ar
     3    1   18 1
     4    2    4 ar
     5    2    6 ar
     6    2   19 1
     7    3    7 ar
     8    3   20 1
     9    4    8 ar
    10    4   21 1
    11    5    9 ar
    12    5   22 1
    13    6   10 ar
    14    6   23 1
    15    7   11 ar
    16    7   24 1
    17    8   12 ar
    18    8   25 1
    19    9   11 ar
    20    9   13 1
    21   10   12 ar
    22   10   14 1
    23   11   17 1
    24   12   17 1
    25   13   26 1
    26   13   27 1
    27   13   28 1
    28   14   29 1
    29   14   30 1
    30   14   31 1
    31   15   17 2
    32   16   17 2
