@<TRIPOS>MOLECULE
*****
   22    22     0     0     0
SMALL
NO_CHARGES

@<TRIPOS>ATOM
      1 C1         -1.9334   -1.9607    4.8950 C.2       1 <0>         0.0000
      2 C2         -1.2181   -3.1160    4.6642 C.2       1 <0>         0.0000
      3 C3          0.0896   -1.3431    4.4766 C.2       1 <0>         0.0000
      4 C4          2.9311   -0.8787    6.1500 C.2       1 <0>         0.0000
      5 C5          3.3582   -0.4883    7.5537 C.3       1 <0>         0.0000
      6 C6          1.1820   -3.6012    4.0415 C.3       1 <0>         0.0000
      7 C7          1.3059   -0.4791    4.3211 C.3       1 <0>         0.0000
      8 N1         -1.1109   -0.8630    4.7764 N.2       1 <0>         0.0000
      9 N2          0.0795   -2.7147    4.4060 N.pl3     1 <0>         0.0000
     10 N3          1.9246   -0.1330    5.6035 N.am      1 <0>         0.0000
     11 O1          3.4783   -1.8034    5.5423 O.2       1 <0>         0.0000
     12 H1         -2.9841   -1.8614    5.1355 H         1 <0>         0.0000
     13 H2         -1.5019   -4.1592    4.6549 H         1 <0>         0.0000
     14 H3          3.1628   -1.3295    8.2249 H         1 <0>         0.0000
     15 H4          4.4365   -0.3112    7.5536 H         1 <0>         0.0000
     16 H5          2.8484    0.3999    7.9365 H         1 <0>         0.0000
     17 H6          1.2175   -3.7485    2.9567 H         1 <0>         0.0000
     18 H7          2.1267   -3.1827    4.3913 H         1 <0>         0.0000
     19 H8          1.0311   -4.5694    4.5236 H         1 <0>         0.0000
     20 H9          2.0728   -0.9560    3.7107 H         1 <0>         0.0000
     21 H10         0.9992    0.4471    3.8303 H         1 <0>         0.0000
     22 H11         1.3959    0.4833    6.2076 H         1 <0>         0.0000
@<TRIPOS>BOND
     1    1    2 2
     2    1    8 1
     3    1   12 1
     4    2    9 1
     5    2   13 1
     6    3    7 1
     7    3    8 2
     8    3    9 1
     9    4    5 1
    10    4   10 am
    11    4   11 2
    12    5   14 1
    13    5   15 1
    14    5   16 1
    15    6    9 1
    16    6   17 1
    17    6   18 1
    18    6   19 1
    19    7   10 1
    20    7   20 1
    21    7   21 1
    22   10   22 1
