@<TRIPOS>MOLECULE
*****
   35    37     0     0     0
SMALL
NO_CHARGES

@<TRIPOS>ATOM
      1 C1          1.5680   -1.3738   -0.0945 C.ar      1 <0>         0.0000
      2 C2          0.4832   -1.8176    0.6687 C.ar      1 <0>         0.0000
      3 C3          2.7013   -0.8672    0.5507 C.ar      1 <0>         0.0000
      4 C4          0.5531   -0.6028    6.2802 C.ar      1 <0>         0.0000
      5 C5          1.6582   -1.0229    7.0259 C.ar      1 <0>         0.0000
      6 C6          6.4493   -2.0019    3.9494 C.ar      1 <0>         0.0000
      7 C7          6.4364   -3.1998    3.2286 C.ar      1 <0>         0.0000
      8 C8          0.5379   -1.7592    2.0632 C.ar      1 <0>         0.0000
      9 C9          2.7542   -0.8104    1.9448 C.ar      1 <0>         0.0000
     10 C10         0.5861   -0.6969    4.8889 C.ar      1 <0>         0.0000
     11 C11         2.7762   -1.5357    6.3659 C.ar      1 <0>         0.0000
     12 C12         5.2611   -1.5267    4.5061 C.ar      1 <0>         0.0000
     13 C13         5.2409   -3.9078    3.0890 C.ar      1 <0>         0.0000
     14 C14         1.6748   -1.2606    2.7237 C.ar      1 <0>         0.0000
     15 C15         1.7060   -1.2089    4.2098 C.ar      1 <0>         0.0000
     16 C16         2.8189   -1.6456    4.9667 C.ar      1 <0>         0.0000
     17 C17         4.0500   -2.2205    4.3466 C.ar      1 <0>         0.0000
     18 C18         4.0377   -3.4416    3.6394 C.ar      1 <0>         0.0000
     19 C19         2.7775   -4.2553    3.4611 C.3       1 <0>         0.0000
     20 H1          1.5309   -1.4224   -1.1798 H         1 <0>         0.0000
     21 H2         -0.4012   -2.2185    0.1797 H         1 <0>         0.0000
     22 H3          3.5476   -0.5133   -0.0325 H         1 <0>         0.0000
     23 H4         -0.3234   -0.1945    6.7766 H         1 <0>         0.0000
     24 H5          1.6493   -0.9556    8.1107 H         1 <0>         0.0000
     25 H6          7.3731   -1.4430    4.0755 H         1 <0>         0.0000
     26 H7          7.3520   -3.5856    2.7874 H         1 <0>         0.0000
     27 H8         -0.2973   -2.1326    2.6501 H         1 <0>         0.0000
     28 H9          3.6377   -0.4110    2.4306 H         1 <0>         0.0000
     29 H10        -0.2589   -0.3380    4.3074 H         1 <0>         0.0000
     30 H11         3.6318   -1.8825    6.9397 H         1 <0>         0.0000
     31 H12         5.2581   -0.5897    5.0579 H         1 <0>         0.0000
     32 H13         5.2380   -4.8500    2.5448 H         1 <0>         0.0000
     33 H14         2.0940   -4.1351    4.3055 H         1 <0>         0.0000
     34 H15         2.2369   -3.9475    2.5598 H         1 <0>         0.0000
     35 H16         3.0158   -5.3183    3.3600 H         1 <0>         0.0000
@<TRIPOS>BOND
     1    1    3 ar
     2    1    2 ar
     3    1   20 1
     4    2    8 ar
     5    2   21 1
     6    3    9 ar
     7    3   22 1
     8    4    5 ar
     9    4   10 ar
    10    4   23 1
    11    5   11 ar
    12    5   24 1
    13    6    7 ar
    14    6   12 ar
    15    6   25 1
    16    7   13 ar
    17    7   26 1
    18    8   14 ar
    19    8   27 1
    20    9   14 ar
    21    9   28 1
    22   10   15 ar
    23   10   29 1
    24   11   16 ar
    25   11   30 1
    26   12   17 ar
    27   12   31 1
    28   13   18 ar
    29   13   32 1
    30   14   15 1
    31   15   16 ar
    32   16   17 1
    33   17   18 ar
    34   18   19 1
    35   19   33 1
    36   19   34 1
    37   19   35 1
