@<TRIPOS>MOLECULE
*****
   31    32     0     0     0
SMALL
NO_CHARGES

@<TRIPOS>ATOM
      1 C1         -3.0657   -0.8156   -4.5889 C.ar      1 <0>         0.0000
      2 C2         -2.8741    0.3019   -5.4086 C.ar      1 <0>         0.0000
      3 C3         -2.1776   -1.0542   -3.5387 C.ar      1 <0>         0.0000
      4 C4         -1.8077    1.1711   -5.1708 C.ar      1 <0>         0.0000
      5 C5         -1.0969   -0.2009   -3.2857 C.ar      1 <0>         0.0000
      6 C6         -0.9277    0.9219   -4.1098 C.ar      1 <0>         0.0000
      7 C7         -0.0590    2.0761   -0.2287 C.3       1 <0>         0.0000
      8 C8          0.7147    1.5983    1.0118 C.3       1 <0>         0.0000
      9 C9         -1.2419    1.1581   -0.5702 C.3       1 <0>         0.0000
     10 C10         1.2490    0.1668    0.8630 C.3       1 <0>         0.0000
     11 C11        -0.1577   -0.4852   -2.1371 C.3       1 <0>         0.0000
     12 N1         -0.8467   -0.2448   -0.8452 N.pl3     1 <0>         0.0000
     13 O1          0.4144   -2.2654    0.0810 O.2       1 <0>         0.0000
     14 O2         -1.0758   -0.8648    1.6095 O.2       1 <0>         0.0000
     15 O3          0.1235    1.7722   -3.8287 O.3       1 <0>         0.0000
     16 S1         -0.1219   -0.9677    0.5012 S.o2      1 <0>         0.0000
     17 H1         -3.8959   -1.4923   -4.7685 H         1 <0>         0.0000
     18 H2         -3.5536    0.5016   -6.2329 H         1 <0>         0.0000
     19 H3         -2.3185   -1.9125   -2.8864 H         1 <0>         0.0000
     20 H4         -1.6611    2.0443   -5.8051 H         1 <0>         0.0000
     21 H5         -0.4439    3.0860   -0.0478 H         1 <0>         0.0000
     22 H6          0.6124    2.1467   -1.0917 H         1 <0>         0.0000
     23 H7          1.5645    2.2623    1.2045 H         1 <0>         0.0000
     24 H8          0.0667    1.6392    1.8934 H         1 <0>         0.0000
     25 H9         -1.9619    1.1343    0.2512 H         1 <0>         0.0000
     26 H10        -1.7682    1.5153   -1.4581 H         1 <0>         0.0000
     27 H11         1.9567    0.0659    0.0350 H         1 <0>         0.0000
     28 H12         1.7179   -0.2027    1.7788 H         1 <0>         0.0000
     29 H13         0.1302   -1.5366   -2.1482 H         1 <0>         0.0000
     30 H14         0.7516    0.1165   -2.2376 H         1 <0>         0.0000
     31 H15         0.1310    2.4873   -4.4844 H         1 <0>         0.0000
@<TRIPOS>BOND
     1    1    2 ar
     2    1    3 ar
     3    1   17 1
     4    2    4 ar
     5    2   18 1
     6    3    5 ar
     7    3   19 1
     8    4    6 ar
     9    4   20 1
    10    5    6 ar
    11    5   11 1
    12    6   15 1
    13    7    8 1
    14    7    9 1
    15    7   21 1
    16    7   22 1
    17    8   10 1
    18    8   23 1
    19    8   24 1
    20    9   12 1
    21    9   25 1
    22    9   26 1
    23   10   16 1
    24   10   27 1
    25   10   28 1
    26   11   12 1
    27   11   29 1
    28   11   30 1
    29   12   16 1
    30   13   16 2
    31   14   16 2
    32   15   31 1
