@<TRIPOS>MOLECULE
*****
   25    26     0     0     0
SMALL
NO_CHARGES

@<TRIPOS>ATOM
      1 C1          1.9553   -1.3267   -0.3804 C.ar      1 <0>         0.0000
      2 C2          2.2328   -2.5049    0.3225 C.ar      1 <0>         0.0000
      3 C3          1.5708   -0.1741    0.3135 C.ar      1 <0>         0.0000
      4 C4          2.1245   -2.5307    1.7135 C.ar      1 <0>         0.0000
      5 C5          1.4435   -0.2028    1.7035 C.ar      1 <0>         0.0000
      6 C6         -2.2675    0.7141    3.3699 C.2       1 <0>         0.0000
      7 C7         -2.2586   -0.4965    2.7513 C.2       1 <0>         0.0000
      8 C8          1.7125   -1.3858    2.4088 C.ar      1 <0>         0.0000
      9 C9         -0.4831   -0.2803    3.9769 C.2       1 <0>         0.0000
     10 C10         1.6635   -1.4553    3.9033 C.2       1 <0>         0.0000
     11 C11         0.8478   -0.4941    6.0177 C.3       1 <0>         0.0000
     12 N1         -1.1188    0.8435    4.1483 N.2       1 <0>         0.0000
     13 N2          0.7091   -0.6756    4.5635 N.am      1 <0>         0.0000
     14 O1          2.4675   -2.1210    4.5478 O.2       1 <0>         0.0000
     15 O2         -1.1212   -1.1634    3.1556 O.3       1 <0>         0.0000
     16 H1          2.0465   -1.3044   -1.4634 H         1 <0>         0.0000
     17 H2          2.5399   -3.3991   -0.2134 H         1 <0>         0.0000
     18 H3          1.3731    0.7476   -0.2271 H         1 <0>         0.0000
     19 H4          2.3577   -3.4298    2.2756 H         1 <0>         0.0000
     20 H5          1.1559    0.6998    2.2349 H         1 <0>         0.0000
     21 H6         -3.0034    1.5041    3.3064 H         1 <0>         0.0000
     22 H7         -2.9002   -1.0133    2.0542 H         1 <0>         0.0000
     23 H8          0.4628   -1.3656    6.5571 H         1 <0>         0.0000
     24 H9          0.2933    0.3988    6.3046 H         1 <0>         0.0000
     25 H10         1.9041   -0.3744    6.2561 H         1 <0>         0.0000
@<TRIPOS>BOND
     1    1    3 ar
     2    1    2 ar
     3    1   16 1
     4    2    4 ar
     5    2   17 1
     6    3    5 ar
     7    3   18 1
     8    4    8 ar
     9    4   19 1
    10    5    8 ar
    11    5   20 1
    12    6    7 2
    13    6   12 1
    14    6   21 1
    15    7   15 1
    16    7   22 1
    17    8   10 1
    18    9   12 2
    19    9   13 1
    20    9   15 1
    21   10   13 am
    22   10   14 2
    23   11   13 1
    24   11   23 1
    25   11   24 1
    26   11   25 1
