@<TRIPOS>MOLECULE
*****
   31    33     0     0     0
SMALL
NO_CHARGES

@<TRIPOS>ATOM
      1 C1          1.7622   -1.4395    0.0481 C.ar      1 <0>         0.0000
      2 C2         -0.2596   -5.5950    5.0413 C.ar      1 <0>         0.0000
      3 C3          0.5485   -1.1229    0.6626 C.ar      1 <0>         0.0000
      4 C4          2.9213   -1.5484    0.8266 C.ar      1 <0>         0.0000
      5 C5         -0.8620   -4.3837    4.6891 C.ar      1 <0>         0.0000
      6 C6          1.0942   -5.5955    5.3987 C.ar      1 <0>         0.0000
      7 C7          0.4924   -0.9189    2.0459 C.ar      1 <0>         0.0000
      8 C8          2.8588   -1.3410    2.2049 C.ar      1 <0>         0.0000
      9 C9         -0.1365   -3.1900    4.6898 C.ar      1 <0>         0.0000
     10 C10         1.8276   -4.4097    5.4030 C.ar      1 <0>         0.0000
     11 C11         1.6445   -1.0226    2.8336 C.ar      1 <0>         0.0000
     12 C12         1.2230   -3.1875    5.0514 C.ar      1 <0>         0.0000
     13 C13         0.6462    0.1168    4.9761 C.3       1 <0>         0.0000
     14 C14         2.1165    0.4635    4.9130 C.3       1 <0>         0.0000
     15 C15         1.6215   -0.8453    4.3320 C.3       1 <0>         0.0000
     16 N1          1.9749   -2.0043    5.1225 N.pl3     1 <0>         0.0000
     17 H1          1.8072   -1.6010   -1.0259 H         1 <0>         0.0000
     18 H2         -0.8298   -6.5196    5.0346 H         1 <0>         0.0000
     19 H3         -0.3578   -1.0415    0.0677 H         1 <0>         0.0000
     20 H4          3.8714   -1.7913    0.3571 H         1 <0>         0.0000
     21 H5         -1.9116   -4.3630    4.4050 H         1 <0>         0.0000
     22 H6          1.5853   -6.5261    5.6730 H         1 <0>         0.0000
     23 H7         -0.4595   -0.6824    2.5133 H         1 <0>         0.0000
     24 H8          3.7655   -1.4206    2.8017 H         1 <0>         0.0000
     25 H9         -0.6252   -2.2633    4.4142 H         1 <0>         0.0000
     26 H10         2.8799   -4.4238    5.6827 H         1 <0>         0.0000
     27 H11         0.2403   -0.1789    5.9374 H         1 <0>         0.0000
     28 H12        -0.0310    0.6732    4.3364 H         1 <0>         0.0000
     29 H13         2.4281    1.2302    4.2109 H         1 <0>         0.0000
     30 H14         2.6884    0.4106    5.8347 H         1 <0>         0.0000
     31 H15         2.9741   -2.1790    5.1347 H         1 <0>         0.0000
@<TRIPOS>BOND
     1    1    4 ar
     2    1    3 ar
     3    1   17 1
     4    2    6 ar
     5    2    5 ar
     6    2   18 1
     7    3    7 ar
     8    3   19 1
     9    4    8 ar
    10    4   20 1
    11    5    9 ar
    12    5   21 1
    13    6   10 ar
    14    6   22 1
    15    7   11 ar
    16    7   23 1
    17    8   11 ar
    18    8   24 1
    19    9   12 ar
    20    9   25 1
    21   10   12 ar
    22   10   26 1
    23   11   15 1
    24   12   16 1
    25   13   14 1
    26   13   15 1
    27   13   27 1
    28   13   28 1
    29   14   15 1
    30   14   29 1
    31   14   30 1
    32   15   16 1
    33   16   31 1
