@<TRIPOS>MOLECULE
*****
   31    32     0     0     0
SMALL
NO_CHARGES

@<TRIPOS>ATOM
      1 C1          0.5545   -1.8133    0.8289 C.ar      1 <0>         0.0000
      2 C2          0.6454   -0.5746    0.1880 C.ar      1 <0>         0.0000
      3 C3          8.8214   -2.1833    4.3864 C.ar      1 <0>         0.0000
      4 C4          8.8361   -0.9972    3.6356 C.ar      1 <0>         0.0000
      5 C5          1.6264   -2.3253    1.5661 C.ar      1 <0>         0.0000
      6 C6          1.8265    0.1677    0.2938 C.ar      1 <0>         0.0000
      7 C7          7.6660   -2.9493    4.4315 C.ar      1 <0>         0.0000
      8 C8          7.6707   -0.6437    2.9642 C.ar      1 <0>         0.0000
      9 C9          2.8139   -1.5845    1.6740 C.ar      1 <0>         0.0000
     10 C10         2.8956   -0.3295    1.0332 C.ar      1 <0>         0.0000
     11 C11         6.5333   -2.5029    3.7143 C.ar      1 <0>         0.0000
     12 C12         4.1008   -3.1014    3.1528 C.2       1 <0>         0.0000
     13 C13         4.0884    1.3400    2.2024 C.3       1 <0>         0.0000
     14 N1          6.5424   -1.3699    2.9990 N.ar      1 <0>         0.0000
     15 N2          3.9631   -1.9945    2.3695 N.am      1 <0>         0.0000
     16 N3          5.3707   -3.2649    3.7511 N.am      1 <0>         0.0000
     17 O1          3.2406   -3.9499    3.3832 O.2       1 <0>         0.0000
     18 O2          4.0820    0.3867    1.1298 O.3       1 <0>         0.0000
     19 H1         -0.3588   -2.3977    0.7532 H         1 <0>         0.0000
     20 H2         -0.1894   -0.1900   -0.3913 H         1 <0>         0.0000
     21 H3          9.7062   -2.5054    4.9293 H         1 <0>         0.0000
     22 H4          9.7215   -0.3730    3.5734 H         1 <0>         0.0000
     23 H5          1.5565   -3.2854    2.0592 H         1 <0>         0.0000
     24 H6          1.9359    1.1306   -0.1981 H         1 <0>         0.0000
     25 H7          7.6257   -3.8735    5.0019 H         1 <0>         0.0000
     26 H8          7.6251    0.2621    2.3625 H         1 <0>         0.0000
     27 H9          5.0725    1.8133    2.1913 H         1 <0>         0.0000
     28 H10         3.9304    0.8471    3.1693 H         1 <0>         0.0000
     29 H11         3.3118    2.0996    2.0518 H         1 <0>         0.0000
     30 H12         4.7940   -1.4008    2.2741 H         1 <0>         0.0000
     31 H13         5.3938   -4.1124    4.3045 H         1 <0>         0.0000
@<TRIPOS>BOND
     1    1    2 ar
     2    1    5 ar
     3    1   19 1
     4    2    6 ar
     5    2   20 1
     6    3    4 ar
     7    3    7 ar
     8    3   21 1
     9    4    8 ar
    10    4   22 1
    11    5    9 ar
    12    5   23 1
    13    6   10 ar
    14    6   24 1
    15    7   11 ar
    16    7   25 1
    17    8   14 ar
    18    8   26 1
    19    9   10 ar
    20    9   15 1
    21   10   18 1
    22   11   14 ar
    23   11   16 1
    24   12   15 am
    25   12   16 am
    26   12   17 2
    27   13   18 1
    28   13   27 1
    29   13   28 1
    30   13   29 1
    31   15   30 1
    32   16   31 1
