@<TRIPOS>MOLECULE
*****
   24    26     0     0     0
SMALL
NO_CHARGES

@<TRIPOS>ATOM
      1 C1          1.8452   -0.8436   -1.0002 C.ar      1 <0>         0.0000
      2 C2          0.5355   -0.9059   -0.4051 C.ar      1 <0>         0.0000
      3 C3          2.4955   -1.9553   -1.4724 C.ar      1 <0>         0.0000
      4 C4         -0.1664   -2.0776   -0.2624 C.ar      1 <0>         0.0000
      5 C5          1.8016   -3.1958   -1.3439 C.ar      1 <0>         0.0000
      6 C6          0.4928   -3.2520   -0.7483 C.ar      1 <0>         0.0000
      7 C7         -2.5524   -1.3061   -0.4096 C.2       1 <0>         0.0000
      8 C8         -1.5206   -1.6771    1.8140 C.2       1 <0>         0.0000
      9 C9         -3.0659   -0.1603    0.0689 C.2       1 <0>         0.0000
     10 C10        -2.0706   -0.5180    2.2135 C.2       1 <0>         0.0000
     11 C11        -1.5557   -2.1449    0.3700 C.3       1 <0>         0.0000
     12 N1          2.1624   -4.4199   -1.6998 N.2       1 <0>         0.0000
     13 N2          0.0801   -4.5121   -0.7525 N.2       1 <0>         0.0000
     14 N3         -2.7409    0.3402    1.3346 N.pl3     1 <0>         0.0000
     15 O1          1.1042   -5.2152   -1.3339 O.3       1 <0>         0.0000
     16 H1          2.3287    0.1271   -1.0733 H         1 <0>         0.0000
     17 H2          0.0831    0.0176   -0.0536 H         1 <0>         0.0000
     18 H3          3.4822   -1.9106   -1.9212 H         1 <0>         0.0000
     19 H4         -2.8264   -1.6303   -1.4087 H         1 <0>         0.0000
     20 H5         -0.9941   -2.2891    2.5398 H         1 <0>         0.0000
     21 H6         -3.7524    0.4497   -0.5105 H         1 <0>         0.0000
     22 H7         -2.0105   -0.1762    3.2423 H         1 <0>         0.0000
     23 H8         -1.8617   -3.1973    0.3368 H         1 <0>         0.0000
     24 H9         -3.3923    0.9945    1.7461 H         1 <0>         0.0000
@<TRIPOS>BOND
     1    1    2 ar
     2    1    3 ar
     3    1   16 1
     4    2    4 ar
     5    2   17 1
     6    3    5 ar
     7    3   18 1
     8    4    6 ar
     9    4   11 1
    10    5    6 ar
    11    5   12 2
    12    6   13 2
    13    7    9 2
    14    7   11 1
    15    7   19 1
    16    8   10 2
    17    8   11 1
    18    8   20 1
    19    9   14 1
    20    9   21 1
    21   10   14 1
    22   10   22 1
    23   11   23 1
    24   12   15 1
    25   13   15 1
    26   14   24 1
