@<TRIPOS>MOLECULE
*****
   25    26     0     0     0
SMALL
NO_CHARGES

@<TRIPOS>ATOM
      1 C1          1.8570   -0.9646   -0.1742 C.ar      1 <0>         0.0000
      2 C2          1.7354   -2.1870    0.4959 C.ar      1 <0>         0.0000
      3 C3          1.9711    0.2169    0.5654 C.ar      1 <0>         0.0000
      4 C4          0.7779   -0.2586    6.1911 C.ar      1 <0>         0.0000
      5 C5          1.6618   -1.0346    6.9458 C.ar      1 <0>         0.0000
      6 C6          1.7331   -2.2263    1.8922 C.ar      1 <0>         0.0000
      7 C7          1.9652    0.1746    1.9625 C.ar      1 <0>         0.0000
      8 C8          0.8651   -0.2803    4.7986 C.ar      1 <0>         0.0000
      9 C9          2.6221   -1.8132    6.2959 C.ar      1 <0>         0.0000
     10 C10         1.8507   -1.0472    2.6468 C.ar      1 <0>         0.0000
     11 C11         1.8190   -1.0717    4.1356 C.ar      1 <0>         0.0000
     12 C12         2.7213   -1.8490    4.8967 C.ar      1 <0>         0.0000
     13 C13         3.8049   -2.6906    4.2567 C.3       1 <0>         0.0000
     14 H1          1.8612   -0.9337   -1.2607 H         1 <0>         0.0000
     15 H2          1.6354   -3.1102   -0.0694 H         1 <0>         0.0000
     16 H3          2.0693    1.1718    0.0550 H         1 <0>         0.0000
     17 H4          0.0259    0.3548    6.6808 H         1 <0>         0.0000
     18 H5          1.6101   -1.0287    8.0317 H         1 <0>         0.0000
     19 H6          1.6192   -3.1780    2.4036 H         1 <0>         0.0000
     20 H7          2.0669    1.0943    2.5331 H         1 <0>         0.0000
     21 H8          0.1716    0.3096    4.2046 H         1 <0>         0.0000
     22 H9          3.3222   -2.4003    6.8868 H         1 <0>         0.0000
     23 H10         3.4319   -3.6800    3.9683 H         1 <0>         0.0000
     24 H11         4.2028   -2.2221    3.3530 H         1 <0>         0.0000
     25 H12         4.6314   -2.8466    4.9559 H         1 <0>         0.0000
@<TRIPOS>BOND
     1    1    3 ar
     2    1    2 ar
     3    1   14 1
     4    2    6 ar
     5    2   15 1
     6    3    7 ar
     7    3   16 1
     8    4    5 ar
     9    4    8 ar
    10    4   17 1
    11    5    9 ar
    12    5   18 1
    13    6   10 ar
    14    6   19 1
    15    7   10 ar
    16    7   20 1
    17    8   11 ar
    18    8   21 1
    19    9   12 ar
    20    9   22 1
    21   10   11 1
    22   11   12 ar
    23   12   13 1
    24   13   23 1
    25   13   24 1
    26   13   25 1
