@<TRIPOS>MOLECULE
*****
   22    22     0     0     0
SMALL
NO_CHARGES

@<TRIPOS>ATOM
      1 C1         -1.6682   -1.7926    4.6871 C.2       1 <0>         0.0000
      2 C2         -1.0839   -3.0242    4.4835 C.2       1 <0>         0.0000
      3 C3          0.4271   -1.4161    4.3457 C.2       1 <0>         0.0000
      4 C4          2.4362   -0.9119    1.7478 C.2       1 <0>         0.0000
      5 C5          2.3323   -0.3331    0.3480 C.3       1 <0>         0.0000
      6 C6          1.2835   -3.7952    4.0523 C.3       1 <0>         0.0000
      7 C7          1.7182   -0.6897    4.1094 C.3       1 <0>         0.0000
      8 N1         -0.7200   -0.7983    4.5991 N.2       1 <0>         0.0000
      9 N2          0.2570   -2.7758    4.2558 N.pl3     1 <0>         0.0000
     10 N3          1.8422   -0.1830    2.7399 N.am      1 <0>         0.0000
     11 O1          3.0349   -1.9687    1.9673 O.2       1 <0>         0.0000
     12 H1         -2.7079   -1.5713    4.8920 H         1 <0>         0.0000
     13 H2         -1.4831   -4.0289    4.4823 H         1 <0>         0.0000
     14 H3          3.3314   -0.3041   -0.0930 H         1 <0>         0.0000
     15 H4          1.7214   -1.0041   -0.2631 H         1 <0>         0.0000
     16 H5          1.8964    0.6692    0.3198 H         1 <0>         0.0000
     17 H6          0.8277   -4.6649    3.5746 H         1 <0>         0.0000
     18 H7          2.0659   -3.4091    3.3974 H         1 <0>         0.0000
     19 H8          1.7165   -4.1047    5.0096 H         1 <0>         0.0000
     20 H9          1.7548    0.1624    4.7915 H         1 <0>         0.0000
     21 H10         2.5852   -1.3221    4.2998 H         1 <0>         0.0000
     22 H11         1.2112    0.5639    2.4780 H         1 <0>         0.0000
@<TRIPOS>BOND
     1    1    2 2
     2    1    8 1
     3    1   12 1
     4    2    9 1
     5    2   13 1
     6    3    7 1
     7    3    8 2
     8    3    9 1
     9    4    5 1
    10    4   10 am
    11    4   11 2
    12    5   14 1
    13    5   15 1
    14    5   16 1
    15    6    9 1
    16    6   17 1
    17    6   18 1
    18    6   19 1
    19    7   10 1
    20    7   20 1
    21    7   21 1
    22   10   22 1
