@<TRIPOS>MOLECULE
*****
   27    28     0     0     0
SMALL
NO_CHARGES

@<TRIPOS>ATOM
      1 C1         -2.9009   -2.2292    2.6570 C.ar      1 <0>         0.0000
      2 C2         -3.7734   -1.2720    2.1265 C.ar      1 <0>         0.0000
      3 C3         -1.6762   -1.8368    3.2085 C.ar      1 <0>         0.0000
      4 C4         -3.4202    0.0799    2.1331 C.ar      1 <0>         0.0000
      5 C5         -1.3117   -0.4877    3.2209 C.ar      1 <0>         0.0000
      6 C6         -2.1856    0.4563    2.6723 C.ar      1 <0>         0.0000
      7 C7         -0.7032    2.3403   -1.2075 C.3       1 <0>         0.0000
      8 C8          0.3871    1.4215   -0.6289 C.3       1 <0>         0.0000
      9 C9         -1.7721    2.3304   -0.1123 C.3       1 <0>         0.0000
     10 C10         0.3789    1.7228    0.8830 C.3       1 <0>         0.0000
     11 N1         -0.9467    2.3548    1.1124 N.pl3     1 <0>         0.0000
     12 O1         -2.9012    2.9932    2.5487 O.2       1 <0>         0.0000
     13 O2         -0.6414    2.3804    3.6036 O.2       1 <0>         0.0000
     14 S1         -1.6838    2.1815    2.5957 S.o2      1 <0>         0.0000
     15 H1         -3.1817   -3.2791    2.6534 H         1 <0>         0.0000
     16 H2         -4.7332   -1.5759    1.7177 H         1 <0>         0.0000
     17 H3         -1.0093   -2.5787    3.6394 H         1 <0>         0.0000
     18 H4         -4.0975    0.8392    1.7552 H         1 <0>         0.0000
     19 H5         -0.3812   -0.1602    3.6736 H         1 <0>         0.0000
     20 H6         -0.3199    3.3571   -1.3390 H         1 <0>         0.0000
     21 H7         -1.0922    1.9914   -2.1677 H         1 <0>         0.0000
     22 H8          0.1166    0.3744   -0.8003 H         1 <0>         0.0000
     23 H9          1.3704    1.5905   -1.0750 H         1 <0>         0.0000
     24 H10        -2.4368    3.1946   -0.1286 H         1 <0>         0.0000
     25 H11        -2.3782    1.4140   -0.1756 H         1 <0>         0.0000
     26 H12         0.5026    0.8098    1.4739 H         1 <0>         0.0000
     27 H13         1.1610    2.4254    1.1805 H         1 <0>         0.0000
@<TRIPOS>BOND
     1    1    3 ar
     2    1    2 ar
     3    1   15 1
     4    2    4 ar
     5    2   16 1
     6    3    5 ar
     7    3   17 1
     8    4    6 ar
     9    4   18 1
    10    5    6 ar
    11    5   19 1
    12    6   14 1
    13    7    8 1
    14    7    9 1
    15    7   20 1
    16    7   21 1
    17    8   10 1
    18    8   22 1
    19    8   23 1
    20    9   11 1
    21    9   24 1
    22    9   25 1
    23   10   11 1
    24   10   26 1
    25   10   27 1
    26   11   14 1
    27   12   14 2
    28   13   14 2
