@<TRIPOS>MOLECULE
*****
   35    36     0     0     0
SMALL
NO_CHARGES

@<TRIPOS>ATOM
      1 C1          3.5599   -2.1872   -4.4605 C.ar      1 <0>         0.0000
      2 C2          4.9732   -2.4589   -2.5213 C.ar      1 <0>         0.0000
      3 C3          2.9704   -1.0603   -3.8845 C.ar      1 <0>         0.0000
      4 C4          4.3995   -1.3317   -1.9329 C.ar      1 <0>         0.0000
      5 C5          4.5641   -2.9028   -3.7898 C.ar      1 <0>         0.0000
      6 C6          3.3937   -0.6479   -2.6202 C.ar      1 <0>         0.0000
      7 C7          0.3491    0.6984    1.5361 C.2       1 <0>         0.0000
      8 C8          0.9037    1.2074    0.2083 C.3       1 <0>         0.0000
      9 C9         -0.7283   -1.3823   -0.6064 C.3       1 <0>         0.0000
     10 C10         0.3398   -0.6915   -1.4661 C.3       1 <0>         0.0000
     11 C11        -1.5384   -0.4319    0.2860 C.3       1 <0>         0.0000
     12 C12         1.4164    0.0567   -0.6749 C.3       1 <0>         0.0000
     13 C13         5.2210   -4.1002   -4.4342 C.3       1 <0>         0.0000
     14 N1         -0.8310    0.0063    1.4864 N.am      1 <0>         0.0000
     15 O1          0.9350    0.8959    2.5985 O.2       1 <0>         0.0000
     16 O2          3.6649    1.4758   -1.0580 O.2       1 <0>         0.0000
     17 O3          1.8762    1.5138   -2.8934 O.2       1 <0>         0.0000
     18 S1          2.6357    0.7895   -1.8566 S.o2      1 <0>         0.0000
     19 H1          3.2376   -2.5121   -5.4471 H         1 <0>         0.0000
     20 H2          5.7575   -2.9955   -1.9925 H         1 <0>         0.0000
     21 H3          2.2031   -0.4948   -4.4045 H         1 <0>         0.0000
     22 H4          4.7384   -0.9722   -0.9656 H         1 <0>         0.0000
     23 H5          0.1509    1.7830   -0.3405 H         1 <0>         0.0000
     24 H6          1.7266    1.8729    0.4702 H         1 <0>         0.0000
     25 H7         -1.4225   -1.8883   -1.2879 H         1 <0>         0.0000
     26 H8         -0.2756   -2.1587    0.0218 H         1 <0>         0.0000
     27 H9          0.8165   -1.4488   -2.0963 H         1 <0>         0.0000
     28 H10        -0.1435    0.0233   -2.1413 H         1 <0>         0.0000
     29 H11        -1.8677    0.4378   -0.2966 H         1 <0>         0.0000
     30 H12        -2.4454   -0.9367    0.6277 H         1 <0>         0.0000
     31 H13         2.0206   -0.6297   -0.0713 H         1 <0>         0.0000
     32 H14         6.1060   -3.7926   -5.0039 H         1 <0>         0.0000
     33 H15         5.5492   -4.8274   -3.6860 H         1 <0>         0.0000
     34 H16         4.5425   -4.6045   -5.1279 H         1 <0>         0.0000
     35 H17        -1.1296   -0.3569    2.3841 H         1 <0>         0.0000
@<TRIPOS>BOND
     1    1    3 ar
     2    1    5 ar
     3    1   19 1
     4    2    4 ar
     5    2    5 ar
     6    2   20 1
     7    3    6 ar
     8    3   21 1
     9    4    6 ar
    10    4   22 1
    11    5   13 1
    12    6   18 1
    13    7    8 1
    14    7   14 am
    15    7   15 2
    16    8   12 1
    17    8   23 1
    18    8   24 1
    19    9   10 1
    20    9   11 1
    21    9   25 1
    22    9   26 1
    23   10   12 1
    24   10   27 1
    25   10   28 1
    26   11   14 1
    27   11   29 1
    28   11   30 1
    29   12   18 1
    30   12   31 1
    31   13   32 1
    32   13   33 1
    33   13   34 1
    34   14   35 1
    35   16   18 2
    36   17   18 2
