@<TRIPOS>MOLECULE
*****
   35    36     0     0     0
SMALL
NO_CHARGES

@<TRIPOS>ATOM
      1 C1          6.1600   -1.9877    7.7489 C.1       1 <0>         0.0000
      2 C2          5.4010   -0.2186    5.5788 C.ar      1 <0>         0.0000
      3 C3          5.1376    0.4184    4.3623 C.ar      1 <0>         0.0000
      4 C4          3.3147   -1.4143    5.4026 C.ar      1 <0>         0.0000
      5 C5          4.4940   -1.1367    6.1077 C.ar      1 <0>         0.0000
      6 C6          3.9535    0.1509    3.6642 C.ar      1 <0>         0.0000
      7 C7          3.0316   -0.7812    4.1964 C.ar      1 <0>         0.0000
      8 C8          0.2138    1.2938    2.5615 C.3       1 <0>         0.0000
      9 C9         -0.3370   -0.0106    1.9128 C.3       1 <0>         0.0000
     10 C10         0.5623    0.9261    4.0259 C.3       1 <0>         0.0000
     11 C11        -0.4444   -1.0327    3.0658 C.3       1 <0>         0.0000
     12 C12         0.6465   -0.6040    4.0434 C.3       1 <0>         0.0000
     13 C13         4.5052    1.6703    1.9070 C.3       1 <0>         0.0000
     14 C14         4.7179   -1.8137    7.4412 C.3       1 <0>         0.0000
     15 N1          7.2764   -2.1405    8.0363 N.1       1 <0>         0.0000
     16 O1          4.0753   -1.0425    8.4640 O.3       1 <0>         0.0000
     17 O2          1.9000   -1.0800    3.4817 O.3       1 <0>         0.0000
     18 O3          3.6024    0.7298    2.4813 O.3       1 <0>         0.0000
     19 H1          6.3251    0.0023    6.1051 H         1 <0>         0.0000
     20 H2          5.8611    1.1240    3.9706 H         1 <0>         0.0000
     21 H3          2.5993   -2.1365    5.7882 H         1 <0>         0.0000
     22 H4          1.1079    1.6316    2.0340 H         1 <0>         0.0000
     23 H5         -0.5166    2.1077    2.5246 H         1 <0>         0.0000
     24 H6         -1.2990    0.1430    1.4152 H         1 <0>         0.0000
     25 H7          0.3653   -0.3796    1.1610 H         1 <0>         0.0000
     26 H8          1.4813    1.3966    4.3848 H         1 <0>         0.0000
     27 H9         -0.2414    1.2281    4.7079 H         1 <0>         0.0000
     28 H10        -1.4137   -0.9507    3.5714 H         1 <0>         0.0000
     29 H11        -0.3168   -2.0698    2.7442 H         1 <0>         0.0000
     30 H12         0.5255   -1.0273    5.0478 H         1 <0>         0.0000
     31 H13         4.0356    2.0033    0.9807 H         1 <0>         0.0000
     32 H14         5.4723    1.2066    1.6778 H         1 <0>         0.0000
     33 H15         4.6590    2.5326    2.5674 H         1 <0>         0.0000
     34 H16         4.2877   -2.8241    7.4042 H         1 <0>         0.0000
     35 H17         4.1966   -1.4980    9.3149 H         1 <0>         0.0000
@<TRIPOS>BOND
     1    1   14 1
     2    1   15 3
     3    2    3 ar
     4    2    5 ar
     5    2   19 1
     6    3    6 ar
     7    3   20 1
     8    4    5 ar
     9    4    7 ar
    10    4   21 1
    11    5   14 1
    12    6    7 ar
    13    6   18 1
    14    7   17 1
    15    8    9 1
    16    8   10 1
    17    8   22 1
    18    8   23 1
    19    9   11 1
    20    9   24 1
    21    9   25 1
    22   10   12 1
    23   10   26 1
    24   10   27 1
    25   11   12 1
    26   11   28 1
    27   11   29 1
    28   12   17 1
    29   12   30 1
    30   13   18 1
    31   13   31 1
    32   13   32 1
    33   13   33 1
    34   14   16 1
    35   14   34 1
    36   16   35 1
