@<TRIPOS>MOLECULE
*****
   35    36     0     0     0
SMALL
NO_CHARGES

@<TRIPOS>ATOM
      1 C1          3.4257   -2.4586    7.5746 C.1       1 <0>         0.0000
      2 C2          5.4036   -0.1942    5.3586 C.ar      1 <0>         0.0000
      3 C3          5.1887    0.6354    4.2479 C.ar      1 <0>         0.0000
      4 C4          3.0125   -0.3215    5.7028 C.ar      1 <0>         0.0000
      5 C5          4.3183   -0.6741    6.0819 C.ar      1 <0>         0.0000
      6 C6          3.8971    0.9915    3.8615 C.ar      1 <0>         0.0000
      7 C7          2.7875    0.5054    4.6028 C.ar      1 <0>         0.0000
      8 C8         -0.9474    0.4983    2.7350 C.3       1 <0>         0.0000
      9 C9         -0.4558   -0.9727    2.8665 C.3       1 <0>         0.0000
     10 C10        -0.7973    1.1065    4.1446 C.3       1 <0>         0.0000
     11 C11         0.1488   -1.1008    4.2895 C.3       1 <0>         0.0000
     12 C12         0.3770    0.3445    4.7569 C.3       1 <0>         0.0000
     13 C13         4.6684    2.2898    2.0158 C.3       1 <0>         0.0000
     14 C14         4.5530   -1.5212    7.3242 C.3       1 <0>         0.0000
     15 N1          2.5545   -3.1910    7.8127 N.1       1 <0>         0.0000
     16 O1          5.7804   -2.2316    7.1896 O.3       1 <0>         0.0000
     17 O2          1.5658    0.9088    4.1622 O.3       1 <0>         0.0000
     18 O3          3.5898    1.7868    2.7955 O.3       1 <0>         0.0000
     19 H1          6.4119   -0.4762    5.6393 H         1 <0>         0.0000
     20 H2          6.0448    0.9932    3.6876 H         1 <0>         0.0000
     21 H3          2.1714   -0.7146    6.2606 H         1 <0>         0.0000
     22 H4         -0.3142    1.0453    2.0317 H         1 <0>         0.0000
     23 H5         -1.9760    0.5645    2.3688 H         1 <0>         0.0000
     24 H6         -1.2708   -1.6885    2.7257 H         1 <0>         0.0000
     25 H7          0.2973   -1.1943    2.1059 H         1 <0>         0.0000
     26 H8         -0.6220    2.1855    4.1402 H         1 <0>         0.0000
     27 H9         -1.6881    0.9086    4.7520 H         1 <0>         0.0000
     28 H10        -0.5612   -1.5751    4.9764 H         1 <0>         0.0000
     29 H11         1.0632   -1.6975    4.3126 H         1 <0>         0.0000
     30 H12         0.4284    0.4544    5.8460 H         1 <0>         0.0000
     31 H13         4.2106    2.8886    1.2273 H         1 <0>         0.0000
     32 H14         5.2498    1.4765    1.5635 H         1 <0>         0.0000
     33 H15         5.3340    2.9248    2.6141 H         1 <0>         0.0000
     34 H16         4.5971   -0.8606    8.2038 H         1 <0>         0.0000
     35 H17         5.9791   -2.6645    8.0359 H         1 <0>         0.0000
@<TRIPOS>BOND
     1    1   14 1
     2    1   15 3
     3    2    3 ar
     4    2    5 ar
     5    2   19 1
     6    3    6 ar
     7    3   20 1
     8    4    5 ar
     9    4    7 ar
    10    4   21 1
    11    5   14 1
    12    6    7 ar
    13    6   18 1
    14    7   17 1
    15    8    9 1
    16    8   10 1
    17    8   22 1
    18    8   23 1
    19    9   11 1
    20    9   24 1
    21    9   25 1
    22   10   12 1
    23   10   26 1
    24   10   27 1
    25   11   12 1
    26   11   28 1
    27   11   29 1
    28   12   17 1
    29   12   30 1
    30   13   18 1
    31   13   31 1
    32   13   32 1
    33   13   33 1
    34   14   16 1
    35   14   34 1
    36   16   35 1
