@<TRIPOS>MOLECULE
*****
   34    35     0     0     0
SMALL
NO_CHARGES

@<TRIPOS>ATOM
      1 C1         -0.1093   -1.9057    0.3198 C.ar      1 <0>         0.0000
      2 C2         -0.9566   -0.9111   -0.1735 C.ar      1 <0>         0.0000
      3 C3         -0.6515   -3.1133    0.7775 C.ar      1 <0>         0.0000
      4 C4         -2.3397   -1.1213   -0.2014 C.ar      1 <0>         0.0000
      5 C5         -2.0302   -3.3191    0.7451 C.ar      1 <0>         0.0000
      6 C6         -2.8861   -2.3214    0.2595 C.ar      1 <0>         0.0000
      7 C7         -4.8359   -3.7708   -0.5352 C.2       1 <0>         0.0000
      8 C8         -4.9891   -2.4533    1.6864 C.2       1 <0>         0.0000
      9 C9         -3.3919    0.3080    4.7805 C.3       1 <0>         0.0000
     10 C10        -3.9254   -0.4265    5.9938 C.3       1 <0>         0.0000
     11 C11        -3.5238   -1.1989    4.7538 C.3       1 <0>         0.0000
     12 C12        -2.2639   -2.0457    4.7829 C.3       1 <0>         0.0000
     13 C13        -4.6527   -1.7746    3.9445 C.3       1 <0>         0.0000
     14 C14        -4.3857   -2.5219    0.2798 C.3       1 <0>         0.0000
     15 O1         -4.1293   -4.2488   -1.3911 O.2       1 <0>         0.0000
     16 O2         -6.1169   -2.8570    1.9629 O.2       1 <0>         0.0000
     17 O3         -6.0741   -4.2324   -0.2932 O.3       1 <0>         0.0000
     18 O4         -4.1830   -1.8726    2.5629 O.3       1 <0>         0.0000
     19 H1          0.9657   -1.7466    0.3422 H         1 <0>         0.0000
     20 H2         -0.5447    0.0265   -0.5375 H         1 <0>         0.0000
     21 H3          0.0027   -3.8956    1.1537 H         1 <0>         0.0000
     22 H4         -2.9946   -0.3410   -0.5836 H         1 <0>         0.0000
     23 H5         -2.4415   -4.2643    1.0910 H         1 <0>         0.0000
     24 H6         -4.0901    0.8966    4.1921 H         1 <0>         0.0000
     25 H7         -2.3892    0.7219    4.8311 H         1 <0>         0.0000
     26 H8         -3.2824   -0.5158    6.8645 H         1 <0>         0.0000
     27 H9         -4.9819   -0.3265    6.2284 H         1 <0>         0.0000
     28 H10        -1.8562   -2.1709    3.7748 H         1 <0>         0.0000
     29 H11        -2.4696   -3.0403    5.1969 H         1 <0>         0.0000
     30 H12        -1.4942   -1.5783    5.4047 H         1 <0>         0.0000
     31 H13        -5.5462   -1.1452    3.9607 H         1 <0>         0.0000
     32 H14        -4.9294   -2.7794    4.2767 H         1 <0>         0.0000
     33 H15        -4.8603   -1.6839   -0.2503 H         1 <0>         0.0000
     34 H16        -6.4377   -3.7858    0.5113 H         1 <0>         0.0000
@<TRIPOS>BOND
     1    1    3 ar
     2    1    2 ar
     3    1   19 1
     4    2    4 ar
     5    2   20 1
     6    3    5 ar
     7    3   21 1
     8    4    6 ar
     9    4   22 1
    10    5    6 ar
    11    5   23 1
    12    6   14 1
    13    7   14 1
    14    7   15 2
    15    7   17 1
    16    8   14 1
    17    8   16 2
    18    8   18 1
    19    9   10 1
    20    9   11 1
    21    9   24 1
    22    9   25 1
    23   10   11 1
    24   10   26 1
    25   10   27 1
    26   11   12 1
    27   11   13 1
    28   12   28 1
    29   12   29 1
    30   12   30 1
    31   13   18 1
    32   13   31 1
    33   13   32 1
    34   14   33 1
    35   17   34 1
