@<TRIPOS>MOLECULE
*****
   34    35     0     0     0
SMALL
NO_CHARGES

@<TRIPOS>ATOM
      1 C1         -6.4480   -0.8167   -0.8881 C.ar      1 <0>         0.0000
      2 C2         -6.5070   -2.2116   -0.8428 C.ar      1 <0>         0.0000
      3 C3         -5.2163   -0.1702   -0.7272 C.ar      1 <0>         0.0000
      4 C4         -5.3393   -2.9528   -0.6320 C.ar      1 <0>         0.0000
      5 C5         -4.0548   -0.9131   -0.5181 C.ar      1 <0>         0.0000
      6 C6         -4.1080   -2.3121   -0.4649 C.ar      1 <0>         0.0000
      7 C7         -1.6771   -2.8201   -1.1243 C.2       1 <0>         0.0000
      8 C8         -2.4562   -3.1271    1.3030 C.2       1 <0>         0.0000
      9 C9         -3.7625   -1.0730    5.5037 C.3       1 <0>         0.0000
     10 C10        -3.9645   -0.2434    4.2520 C.3       1 <0>         0.0000
     11 C11        -4.1412   -1.7450    4.1992 C.3       1 <0>         0.0000
     12 C12        -5.5401   -2.3117    4.0369 C.3       1 <0>         0.0000
     13 C13        -3.0528   -2.5374    3.5300 C.3       1 <0>         0.0000
     14 C14        -2.8704   -3.1289   -0.1719 C.3       1 <0>         0.0000
     15 O1         -1.8218   -2.2053   -2.1540 O.2       1 <0>         0.0000
     16 O2         -1.4243   -3.6604    1.7053 O.2       1 <0>         0.0000
     17 O3         -0.4914   -3.3471   -0.7704 O.3       1 <0>         0.0000
     18 O4         -3.3347   -2.5308    2.0947 O.3       1 <0>         0.0000
     19 H1         -7.3520   -0.2364   -1.0540 H         1 <0>         0.0000
     20 H2         -7.4567   -2.7235   -0.9739 H         1 <0>         0.0000
     21 H3         -5.1621    0.9145   -0.7706 H         1 <0>         0.0000
     22 H4         -5.3924   -4.0392   -0.5958 H         1 <0>         0.0000
     23 H5         -3.1020   -0.4031   -0.4067 H         1 <0>         0.0000
     24 H6         -2.7498   -1.1936    5.8792 H         1 <0>         0.0000
     25 H7         -4.5225   -1.0285    6.2783 H         1 <0>         0.0000
     26 H8         -4.8587    0.3684    4.1801 H         1 <0>         0.0000
     27 H9         -3.0875    0.1885    3.7781 H         1 <0>         0.0000
     28 H10        -5.6010   -3.3296    4.4407 H         1 <0>         0.0000
     29 H11        -5.8258   -2.3424    2.9806 H         1 <0>         0.0000
     30 H12        -6.2738   -1.6976    4.5680 H         1 <0>         0.0000
     31 H13        -3.0351   -3.5803    3.8614 H         1 <0>         0.0000
     32 H14        -2.0616   -2.1064    3.6888 H         1 <0>         0.0000
     33 H15        -3.0912   -4.1866   -0.3728 H         1 <0>         0.0000
     34 H16        -0.5538   -3.7096    0.1468 H         1 <0>         0.0000
@<TRIPOS>BOND
     1    1    3 ar
     2    1    2 ar
     3    1   19 1
     4    2    4 ar
     5    2   20 1
     6    3    5 ar
     7    3   21 1
     8    4    6 ar
     9    4   22 1
    10    5    6 ar
    11    5   23 1
    12    6   14 1
    13    7   14 1
    14    7   15 2
    15    7   17 1
    16    8   14 1
    17    8   16 2
    18    8   18 1
    19    9   10 1
    20    9   11 1
    21    9   24 1
    22    9   25 1
    23   10   11 1
    24   10   26 1
    25   10   27 1
    26   11   12 1
    27   11   13 1
    28   12   28 1
    29   12   29 1
    30   12   30 1
    31   13   18 1
    32   13   31 1
    33   13   32 1
    34   14   33 1
    35   17   34 1
