@<TRIPOS>MOLECULE
*****
   34    35     0     0     0
SMALL
NO_CHARGES

@<TRIPOS>ATOM
      1 C1         -1.5621    2.0573    1.3579 C.ar      1 <0>         0.0000
      2 C2         -1.0848    2.6718    0.1943 C.ar      1 <0>         0.0000
      3 C3         -1.2150    0.7313    1.6184 C.ar      1 <0>         0.0000
      4 C4         -0.2767    1.9579   -0.6887 C.ar      1 <0>         0.0000
      5 C5         -0.3908   -0.0009    0.7524 C.ar      1 <0>         0.0000
      6 C6          0.0820    0.6260   -0.4153 C.ar      1 <0>         0.0000
      7 C7          0.0040   -2.2995   -0.1746 C.3       1 <0>         0.0000
      8 C8          1.1240   -1.9325   -1.1413 C.3       1 <0>         0.0000
      9 C9         -0.0171   -1.4314    1.0955 C.3       1 <0>         0.0000
     10 C10         1.3077   -1.4018    1.8951 C.3       1 <0>         0.0000
     11 C11         3.1181   -2.3885    3.3311 C.3       1 <0>         0.0000
     12 C12         1.8653   -2.7035    2.4875 C.3       1 <0>         0.0000
     13 C13         0.8154   -3.4572    3.3406 C.3       1 <0>         0.0000
     14 O1          2.7766   -1.5311    4.4134 O.3       1 <0>         0.0000
     15 O2          2.2706   -3.5654    1.4235 O.3       1 <0>         0.0000
     16 F1         -0.1468   -4.0224    2.5726 F         1 <0>         0.0000
     17 F2          0.2006   -2.6691    4.2402 F         1 <0>         0.0000
     18 F3          1.4023   -4.4843    4.0229 F         1 <0>         0.0000
     19 S1          1.1504   -0.1494   -1.6101 S.3       1 <0>         0.0000
     20 H1         -2.2004    2.6025    2.0477 H         1 <0>         0.0000
     21 H2         -1.3487    3.7018   -0.0321 H         1 <0>         0.0000
     22 H3         -1.5853    0.2428    2.5181 H         1 <0>         0.0000
     23 H4          0.0796    2.4314   -1.6006 H         1 <0>         0.0000
     24 H5         -0.9651   -2.1946   -0.6746 H         1 <0>         0.0000
     25 H6          0.1284   -3.3509    0.0929 H         1 <0>         0.0000
     26 H7          2.0948   -2.1897   -0.7162 H         1 <0>         0.0000
     27 H8          1.0095   -2.4818   -2.0794 H         1 <0>         0.0000
     28 H9         -0.8051   -1.8201    1.7458 H         1 <0>         0.0000
     29 H10         2.1022   -0.9873    1.2664 H         1 <0>         0.0000
     30 H11         1.1859   -0.7048    2.7272 H         1 <0>         0.0000
     31 H12         3.5502   -3.3320    3.6941 H         1 <0>         0.0000
     32 H13         3.8382   -1.9179    2.6490 H         1 <0>         0.0000
     33 H14         3.5756   -1.3594    4.9341 H         1 <0>         0.0000
     34 H15         2.6355   -4.3846    1.8001 H         1 <0>         0.0000
@<TRIPOS>BOND
     1    1    2 ar
     2    1    3 ar
     3    1   20 1
     4    2    4 ar
     5    2   21 1
     6    3    5 ar
     7    3   22 1
     8    4    6 ar
     9    4   23 1
    10    5    6 ar
    11    5    9 1
    12    6   19 1
    13    7    8 1
    14    7    9 1
    15    7   24 1
    16    7   25 1
    17    8   19 1
    18    8   26 1
    19    8   27 1
    20    9   10 1
    21    9   28 1
    22   10   12 1
    23   10   29 1
    24   10   30 1
    25   11   12 1
    26   11   14 1
    27   11   31 1
    28   11   32 1
    29   12   13 1
    30   12   15 1
    31   13   16 1
    32   13   17 1
    33   13   18 1
    34   14   33 1
    35   15   34 1
