@<TRIPOS>MOLECULE
*****
   18    17     0     0     0
SMALL
NO_CHARGES

@<TRIPOS>ATOM
      1 C1          0.9063   -0.5088    1.8118 C.2       1 <0>         0.0000
      2 C2          0.3408   -0.8823    3.1592 C.3       1 <0>         0.0000
      3 C3          2.2339    1.9998    0.1379 C.3       1 <0>         0.0000
      4 C4          2.7471    0.6475    3.0450 C.3       1 <0>         0.0000
      5 C5          2.7385    0.6683    0.5796 C.3       1 <0>         0.0000
      6 N1          2.0841    0.2394    1.8130 N.am      1 <0>         0.0000
      7 O1          0.3173   -0.8720    0.7902 O.2       1 <0>         0.0000
      8 H1         -0.3491   -0.1011    3.4934 H         1 <0>         0.0000
      9 H2         -0.2160   -1.8205    3.0889 H         1 <0>         0.0000
     10 H3          1.1435   -0.9655    3.8967 H         1 <0>         0.0000
     11 H4          2.4311    2.7458    0.9219 H         1 <0>         0.0000
     12 H5          2.7471    2.2974   -0.7885 H         1 <0>         0.0000
     13 H6          1.1512    1.9389   -0.0461 H         1 <0>         0.0000
     14 H7          3.4701   -0.1249    3.3461 H         1 <0>         0.0000
     15 H8          3.2743    1.5986    2.8799 H         1 <0>         0.0000
     16 H9          1.9971    0.7770    3.8393 H         1 <0>         0.0000
     17 H10         2.5377   -0.0715   -0.2093 H         1 <0>         0.0000
     18 H11         3.8228    0.7346    0.7527 H         1 <0>         0.0000
@<TRIPOS>BOND
     1    1    2 1
     2    1    6 am
     3    1    7 2
     4    2    8 1
     5    2    9 1
     6    2   10 1
     7    3    5 1
     8    3   11 1
     9    3   12 1
    10    3   13 1
    11    4    6 1
    12    4   14 1
    13    4   15 1
    14    4   16 1
    15    5    6 1
    16    5   17 1
    17    5   18 1
