@<TRIPOS>MOLECULE
*****
   38    41     0     0     0
SMALL
NO_CHARGES

@<TRIPOS>ATOM
      1 C1          5.2403   -1.2994    0.2674 C.ar      1 <0>         0.0000
      2 C2          5.3518    1.0536    0.8040 C.ar      1 <0>         0.0000
      3 C3          6.5113   -1.2297   -0.3028 C.ar      1 <0>         0.0000
      4 C4          6.6229    1.1234    0.2339 C.ar      1 <0>         0.0000
      5 C5          4.6604   -0.1578    0.8208 C.ar      1 <0>         0.0000
      6 C6          7.2026   -0.0183   -0.3195 C.ar      1 <0>         0.0000
      7 C7          3.3014   -0.2321    1.4309 C.2       1 <0>         0.0000
      8 C8         -0.7514    1.6726    0.3800 C.3       1 <0>         0.0000
      9 C9         -1.8065   -0.4757    0.1300 C.3       1 <0>         0.0000
     10 C10        -0.5898    0.4885   -1.7088 C.3       1 <0>         0.0000
     11 C11         0.1081   -0.2352    1.5642 C.3       1 <0>         0.0000
     12 C12         1.3566    0.7545   -0.3228 C.3       1 <0>         0.0000
     13 C13         0.2738   -1.4502   -0.5792 C.3       1 <0>         0.0000
     14 C14         2.3189   -1.2415    0.8831 C.3       1 <0>         0.0000
     15 N1         -1.1284    0.4266    1.0953 N.3       1 <0>         0.0000
     16 N2          0.1217    1.4176   -0.7942 N.3       1 <0>         0.0000
     17 N3         -0.9624   -0.7900   -1.0510 N.3       1 <0>         0.0000
     18 N4          1.0594   -0.5670    0.4034 N.4       1 <0>         0.0000
     19 O1          3.0131    0.5232    2.3564 O.2       1 <0>         0.0000
     20 Cl1         8.7712    0.0673   -1.0217 Cl        1 <0>         0.0000
     21 H1          4.7102   -2.2483    0.2746 H         1 <0>         0.0000
     22 H2          4.9098    1.9494    1.2326 H         1 <0>         0.0000
     23 H3          6.9513   -2.1272   -0.7298 H         1 <0>         0.0000
     24 H4          7.1495    2.0742    0.2278 H         1 <0>         0.0000
     25 H5         -1.6586    2.1995    0.0561 H         1 <0>         0.0000
     26 H6         -0.2523    2.3631    1.0724 H         1 <0>         0.0000
     27 H7         -2.7478   -0.0184   -0.2021 H         1 <0>         0.0000
     28 H8         -2.1030   -1.4051    0.6338 H         1 <0>         0.0000
     29 H9          0.0311    0.2863   -2.5914 H         1 <0>         0.0000
     30 H10        -1.4918    0.9770   -2.1004 H         1 <0>         0.0000
     31 H11         0.6553    0.4061    2.2668 H         1 <0>         0.0000
     32 H12        -0.1211   -1.1749    2.0827 H         1 <0>         0.0000
     33 H13         2.0259    0.5270   -1.1623 H         1 <0>         0.0000
     34 H14         1.9071    1.3985    0.3749 H         1 <0>         0.0000
     35 H15         0.0450   -2.3929   -0.0659 H         1 <0>         0.0000
     36 H16         0.9403   -1.6835   -1.4193 H         1 <0>         0.0000
     37 H17         2.0113   -1.9439    1.6616 H         1 <0>         0.0000
     38 H18         2.7378   -1.7577    0.0158 H         1 <0>         0.0000
@<TRIPOS>BOND
     1    1    3 ar
     2    1    5 ar
     3    1   21 1
     4    2    4 ar
     5    2    5 ar
     6    2   22 1
     7    3    6 ar
     8    3   23 1
     9    4    6 ar
    10    4   24 1
    11    5    7 1
    12    6   20 1
    13    7   14 1
    14    7   19 2
    15    8   15 1
    16    8   16 1
    17    8   25 1
    18    8   26 1
    19    9   17 1
    20    9   15 1
    21    9   27 1
    22    9   28 1
    23   10   17 1
    24   10   16 1
    25   10   29 1
    26   10   30 1
    27   11   15 1
    28   11   18 1
    29   11   31 1
    30   11   32 1
    31   12   16 1
    32   12   18 1
    33   12   33 1
    34   12   34 1
    35   13   17 1
    36   13   18 1
    37   13   35 1
    38   13   36 1
    39   14   18 1
    40   14   37 1
    41   14   38 1
