@<TRIPOS>MOLECULE
*****
   22    23     0     0     0
SMALL
NO_CHARGES

@<TRIPOS>ATOM
      1 C1         -0.0010   -1.2752    1.8011 C.ar      1 <0>         0.0000
      2 C2          0.1034   -1.0079    0.4243 C.ar      1 <0>         0.0000
      3 C3          0.1526   -2.5765    2.2632 C.ar      1 <0>         0.0000
      4 C4          0.3588   -2.0326   -0.4791 C.ar      1 <0>         0.0000
      5 C5          0.8317   -6.0019    0.8895 C.2       1 <0>         0.0000
      6 C6          0.4118   -3.6300    1.3667 C.ar      1 <0>         0.0000
      7 C7          0.5153   -3.3522   -0.0164 C.ar      1 <0>         0.0000
      8 C8          0.5813   -5.0091    1.7934 C.2       1 <0>         0.0000
      9 C9          0.9403   -5.7292   -0.5363 C.2       1 <0>         0.0000
     10 C10         0.6201   -6.5166    3.6432 C.3       1 <0>         0.0000
     11 N1          0.7700   -4.3893   -0.8930 N.am      1 <0>         0.0000
     12 O1          1.1640   -6.5795   -1.4017 O.2       1 <0>         0.0000
     13 O2          0.4674   -5.1900    3.1323 O.3       1 <0>         0.0000
     14 H1         -0.2009   -0.4675    2.4990 H         1 <0>         0.0000
     15 H2         -0.0161    0.0083    0.0583 H         1 <0>         0.0000
     16 H3          0.0755   -2.8019    3.3213 H         1 <0>         0.0000
     17 H4          0.4392   -1.8239   -1.5434 H         1 <0>         0.0000
     18 H5          0.9632   -7.0385    1.1696 H         1 <0>         0.0000
     19 H6          0.4932   -6.4338    4.7227 H         1 <0>         0.0000
     20 H7          1.6171   -6.9101    3.4167 H         1 <0>         0.0000
     21 H8         -0.1440   -7.1845    3.2307 H         1 <0>         0.0000
     22 H9          0.8454   -4.2009   -1.8871 H         1 <0>         0.0000
@<TRIPOS>BOND
     1    1    2 ar
     2    1    3 ar
     3    1   14 1
     4    2    4 ar
     5    2   15 1
     6    3    6 ar
     7    3   16 1
     8    4    7 ar
     9    4   17 1
    10    5    8 2
    11    5    9 1
    12    5   18 1
    13    6    7 ar
    14    6    8 1
    15    7   11 1
    16    8   13 1
    17    9   11 am
    18    9   12 2
    19   10   13 1
    20   10   19 1
    21   10   20 1
    22   10   21 1
    23   11   22 1
