@<TRIPOS>MOLECULE
*****
   28    29     0     0     0
SMALL
NO_CHARGES

@<TRIPOS>ATOM
      1 C1          0.4183   -2.6860   -1.2073 C.ar      1 <0>         0.0000
      2 C2          0.2649   -2.8213   -2.5919 C.ar      1 <0>         0.0000
      3 C3         -0.3620   -0.4110   -1.3413 C.ar      1 <0>         0.0000
      4 C4          0.1013   -1.4825   -0.5647 C.ar      1 <0>         0.0000
      5 C5         -0.5188   -0.5226   -2.7227 C.ar      1 <0>         0.0000
      6 C6         -0.2084   -1.7466   -3.3291 C.ar      1 <0>         0.0000
      7 C7          3.0121    2.1648   -3.3727 C.3       1 <0>         0.0000
      8 C8          2.8452    2.7313   -4.7848 C.3       1 <0>         0.0000
      9 C9          0.8134    2.0633   -3.8848 C.3       1 <0>         0.0000
     10 C10         0.2551   -1.3269    0.9315 C.3       1 <0>         0.0000
     11 C11        -0.2199    1.1054   -4.4601 C.3       1 <0>         0.0000
     12 O1          1.8460    1.3505   -3.2292 O.3       1 <0>         0.0000
     13 O2          1.4199    2.7990   -4.9518 O.3       1 <0>         0.0000
     14 O3         -1.0421    0.5356   -3.4312 O.3       1 <0>         0.0000
     15 F1         -0.3795   -1.8848   -4.6730 F         1 <0>         0.0000
     16 H1          0.7852   -3.5294   -0.6281 H         1 <0>         0.0000
     17 H2          0.4959   -3.7516   -3.1025 H         1 <0>         0.0000
     18 H3         -0.6050    0.5441   -0.8825 H         1 <0>         0.0000
     19 H4          3.8901    1.5290   -3.2462 H         1 <0>         0.0000
     20 H5          3.0209    2.9620   -2.6159 H         1 <0>         0.0000
     21 H6          3.2670    3.7339   -4.9015 H         1 <0>         0.0000
     22 H7          3.2707    2.0639   -5.5434 H         1 <0>         0.0000
     23 H8          0.3399    2.7716   -3.1861 H         1 <0>         0.0000
     24 H9          0.8932   -0.4713    1.1781 H         1 <0>         0.0000
     25 H10        -0.7146   -1.1600    1.4143 H         1 <0>         0.0000
     26 H11         0.7018   -2.2184    1.3800 H         1 <0>         0.0000
     27 H12         0.2824    0.3382   -5.0537 H         1 <0>         0.0000
     28 H13        -0.8971    1.6711   -5.1030 H         1 <0>         0.0000
@<TRIPOS>BOND
     1    1    2 ar
     2    1    4 ar
     3    1   16 1
     4    2    6 ar
     5    2   17 1
     6    3    4 ar
     7    3    5 ar
     8    3   18 1
     9    4   10 1
    10    5    6 ar
    11    5   14 1
    12    6   15 1
    13    7    8 1
    14    7   12 1
    15    7   19 1
    16    7   20 1
    17    8   13 1
    18    8   21 1
    19    8   22 1
    20    9   11 1
    21    9   13 1
    22    9   12 1
    23    9   23 1
    24   10   24 1
    25   10   25 1
    26   10   26 1
    27   11   14 1
    28   11   27 1
    29   11   28 1
