@<TRIPOS>MOLECULE
*****
   38    40     0     0     0
SMALL
NO_CHARGES

@<TRIPOS>ATOM
      1 C1         -4.7215   -5.2055   -0.7822 C.2       1 <0>         0.0000
      2 C2         -0.6501    0.0634   -1.1455 C.2       1 <0>         0.0000
      3 C3         -0.9850   -0.5784    0.0415 C.2       1 <0>         0.0000
      4 C4         -3.0324   -4.2701   -1.8788 C.2       1 <0>         0.0000
      5 C5         -3.8442   -3.1622   -1.7960 C.2       1 <0>         0.0000
      6 C6         -2.4030   -1.1173   -1.6028 C.2       1 <0>         0.0000
      7 C7          0.4917    0.9531   -1.4830 C.2       1 <0>         0.0000
      8 C8         -0.4540   -0.5926    1.4436 C.3       1 <0>         0.0000
      9 C9          0.9826    1.4346    0.9823 C.3       1 <0>         0.0000
     10 C10         0.9384    0.0366    1.6470 C.3       1 <0>         0.0000
     11 C11        -1.6745   -4.3176   -2.5175 C.3       1 <0>         0.0000
     12 C12         2.0387   -0.8774    1.0860 C.3       1 <0>         0.0000
     13 C13         1.1496    0.2304    3.1593 C.3       1 <0>         0.0000
     14 C14        -3.5709   -1.7644   -2.2925 C.3       1 <0>         0.0000
     15 N1         -3.5464   -5.4193   -1.3004 N.2       1 <0>         0.0000
     16 N2         -1.5425   -0.2946   -2.1503 N.2       1 <0>         0.0000
     17 N3         -2.1071   -1.3222   -0.2735 N.pl3     1 <0>         0.0000
     18 N4          1.2561    1.4435   -0.4467 N.am      1 <0>         0.0000
     19 O1          0.7807    1.2243   -2.6477 O.2       1 <0>         0.0000
     20 S1         -5.3143   -3.5743   -0.9516 S.3       1 <0>         0.0000
     21 H1         -5.3144   -5.9654   -0.2839 H         1 <0>         0.0000
     22 H2         -1.1718   -0.0655    2.0880 H         1 <0>         0.0000
     23 H3         -0.4267   -1.6286    1.8070 H         1 <0>         0.0000
     24 H4          0.0464    1.9658    1.2070 H         1 <0>         0.0000
     25 H5          1.7890    2.0100    1.4458 H         1 <0>         0.0000
     26 H6         -0.9125   -4.5710   -1.7725 H         1 <0>         0.0000
     27 H7         -1.6468   -5.0944   -3.2881 H         1 <0>         0.0000
     28 H8         -1.4032   -3.3626   -2.9708 H         1 <0>         0.0000
     29 H9          3.0203   -0.3980    1.1658 H         1 <0>         0.0000
     30 H10         1.8730   -1.1188    0.0339 H         1 <0>         0.0000
     31 H11         2.0759   -1.8155    1.6511 H         1 <0>         0.0000
     32 H12         2.1678    0.5744    3.3705 H         1 <0>         0.0000
     33 H13         0.9961   -0.7092    3.7013 H         1 <0>         0.0000
     34 H14         0.4516    0.9702    3.5692 H         1 <0>         0.0000
     35 H15        -3.3483   -1.7702   -3.3630 H         1 <0>         0.0000
     36 H16        -4.4633   -1.1401   -2.1696 H         1 <0>         0.0000
     37 H17        -2.5855   -1.9655    0.3463 H         1 <0>         0.0000
     38 H18         2.0025    2.0411   -0.7796 H         1 <0>         0.0000
@<TRIPOS>BOND
     1    1   15 2
     2    1   20 1
     3    1   21 1
     4    2    3 2
     5    2    7 1
     6    2   16 1
     7    3    8 1
     8    3   17 1
     9    4    5 2
    10    4   11 1
    11    4   15 1
    12    5   14 1
    13    5   20 1
    14    6   14 1
    15    6   16 2
    16    6   17 1
    17    7   18 am
    18    7   19 2
    19    8   10 1
    20    8   22 1
    21    8   23 1
    22    9   10 1
    23    9   18 1
    24    9   24 1
    25    9   25 1
    26   10   12 1
    27   10   13 1
    28   11   26 1
    29   11   27 1
    30   11   28 1
    31   12   29 1
    32   12   30 1
    33   12   31 1
    34   13   32 1
    35   13   33 1
    36   13   34 1
    37   14   35 1
    38   14   36 1
    39   17   37 1
    40   18   38 1
