@<TRIPOS>MOLECULE
*****
   21    21     0     0     0
SMALL
NO_CHARGES

@<TRIPOS>ATOM
      1 C1          2.1356   -1.0393   -0.0728 C.ar      1 <0>         0.0000
      2 C2          2.8396   -1.9477    0.7229 C.ar      1 <0>         0.0000
      3 C3          1.1355   -0.2302    0.4743 C.ar      1 <0>         0.0000
      4 C4          1.5151   -1.2594    2.6677 C.ar      1 <0>         0.0000
      5 C5          2.5150   -2.0360    2.0702 C.ar      1 <0>         0.0000
      6 C6          0.8515   -0.3603    1.8269 C.ar      1 <0>         0.0000
      7 C7          1.1807   -1.3958    4.1155 C.3       1 <0>         0.0000
      8 C8         -1.6373   -2.1749    3.9269 C.3       1 <0>         0.0000
      9 O1         -0.0210   -2.9500    5.9373 O.2       1 <0>         0.0000
     10 O2          0.3728   -3.9420    3.6015 O.2       1 <0>         0.0000
     11 F1          3.2044   -2.8905    2.8565 F         1 <0>         0.0000
     12 F2         -0.1112    0.4215    2.3736 F         1 <0>         0.0000
     13 F3         -1.8892   -0.9906    4.5055 F         1 <0>         0.0000
     14 F4         -1.6679   -2.0313    2.5958 F         1 <0>         0.0000
     15 F5         -2.5633   -3.0588    4.3003 F         1 <0>         0.0000
     16 S1          0.0635   -2.8175    4.4823 S.o2      1 <0>         0.0000
     17 H1          2.3715   -0.9579   -1.1295 H         1 <0>         0.0000
     18 H2          3.6238   -2.5790    0.3187 H         1 <0>         0.0000
     19 H3          0.5822    0.4858   -0.1241 H         1 <0>         0.0000
     20 H4          0.6956   -0.5131    4.5338 H         1 <0>         0.0000
     21 H5          2.0545   -1.6471    4.7225 H         1 <0>         0.0000
@<TRIPOS>BOND
     1    1    3 ar
     2    1    2 ar
     3    1   17 1
     4    2    5 ar
     5    2   18 1
     6    3    6 ar
     7    3   19 1
     8    4    6 ar
     9    4    5 ar
    10    4    7 1
    11    5   11 1
    12    6   12 1
    13    7   16 1
    14    7   20 1
    15    7   21 1
    16    8   13 1
    17    8   14 1
    18    8   15 1
    19    8   16 1
    20    9   16 2
    21   10   16 2
