@<TRIPOS>MOLECULE
*****
   22    22     0     0     0
SMALL
NO_CHARGES

@<TRIPOS>ATOM
      1 C1          2.2688   -0.5270   -0.2030 C.ar      1 <0>         0.0000
      2 C2          1.0648   -0.0310    0.2955 C.ar      1 <0>         0.0000
      3 C3          1.4380   -1.2507    2.3662 C.ar      1 <0>         0.0000
      4 C4          3.0711   -1.3848    0.5590 C.ar      1 <0>         0.0000
      5 C5          0.6568   -0.4050    1.5781 C.ar      1 <0>         0.0000
      6 C6          2.6453   -1.7322    1.8527 C.ar      1 <0>         0.0000
      7 C7          3.2751   -3.4151   -1.5634 C.2       1 <0>         0.0000
      8 C8          4.2938   -3.1701   -0.4793 C.3       1 <0>         0.0000
      9 N1          3.6893   -3.2836   -2.7802 N.2       1 <0>         0.0000
     10 N2          2.0064   -3.8201   -1.1972 N.pl3     1 <0>         0.0000
     11 O1          2.6068   -3.5208   -3.6810 O.3       1 <0>         0.0000
     12 O2          4.2648   -1.8164    0.0397 O.3       1 <0>         0.0000
     13 Cl1        -0.8592    0.2004    2.2192 Cl        1 <0>         0.0000
     14 Cl2         3.6379   -2.7674    2.8556 Cl        1 <0>         0.0000
     15 H1          2.6103   -0.2650   -1.1997 H         1 <0>         0.0000
     16 H2          0.4489    0.6321   -0.3030 H         1 <0>         0.0000
     17 H3          1.1229   -1.5257    3.3668 H         1 <0>         0.0000
     18 H4          5.2935   -3.2820   -0.8950 H         1 <0>         0.0000
     19 H5          4.1534   -3.8841    0.3385 H         1 <0>         0.0000
     20 H6          1.3117   -3.7467   -1.9323 H         1 <0>         0.0000
     21 H7          1.6823   -3.5223   -0.2858 H         1 <0>         0.0000
     22 H8          3.0298   -3.4061   -4.5461 H         1 <0>         0.0000
@<TRIPOS>BOND
     1    1    2 ar
     2    1    4 ar
     3    1   15 1
     4    2    5 ar
     5    2   16 1
     6    3    5 ar
     7    3    6 ar
     8    3   17 1
     9    4    6 ar
    10    4   12 1
    11    5   13 1
    12    6   14 1
    13    7    8 1
    14    7    9 2
    15    7   10 1
    16    8   12 1
    17    8   18 1
    18    8   19 1
    19    9   11 1
    20   10   20 1
    21   10   21 1
    22   11   22 1
