@<TRIPOS>MOLECULE
*****
   24    26     0     0     0
SMALL
NO_CHARGES

@<TRIPOS>ATOM
      1 C1          0.1026   -0.3085    1.0316 C.ar      1 <0>         0.0000
      2 C2          1.2635    0.0417    1.7179 C.ar      1 <0>         0.0000
      3 C3          5.1901   -1.2027    7.0044 C.2       1 <0>         0.0000
      4 C4         -0.6764   -1.3441    1.5496 C.ar      1 <0>         0.0000
      5 C5          6.1737   -1.2090    7.9555 C.2       1 <0>         0.0000
      6 C6          6.5605    0.5215    6.2146 C.2       1 <0>         0.0000
      7 C7          1.6212   -0.6380    2.8920 C.ar      1 <0>         0.0000
      8 C8          5.4095   -0.2041    5.9962 C.2       1 <0>         0.0000
      9 C9          0.7514   -1.6720    3.3210 C.ar      1 <0>         0.0000
     10 C10         4.4977   -0.0006    4.8734 C.2       1 <0>         0.0000
     11 C11         2.8362   -0.2717    3.6106 C.2       1 <0>         0.0000
     12 N1         -0.3604   -2.0106    2.6678 N.ar      1 <0>         0.0000
     13 N2          3.3548   -0.7614    4.7055 N.2       1 <0>         0.0000
     14 N3          4.6851    0.9120    3.9397 N.2       1 <0>         0.0000
     15 O1          3.5778    0.7388    3.0890 O.3       1 <0>         0.0000
     16 O2          1.0299   -2.3689    4.4403 O.3       1 <0>         0.0000
     17 S1          7.3808   -0.0007    7.6386 S.3       1 <0>         0.0000
     18 H1         -0.1917    0.2045    0.1220 H         1 <0>         0.0000
     19 H2          1.9029    0.8401    1.3558 H         1 <0>         0.0000
     20 H3          4.3357   -1.8695    6.9989 H         1 <0>         0.0000
     21 H4         -1.5926   -1.6568    1.0524 H         1 <0>         0.0000
     22 H5          6.2635   -1.8496    8.8234 H         1 <0>         0.0000
     23 H6          6.9557    1.3273    5.6101 H         1 <0>         0.0000
     24 H7          0.3031   -3.0145    4.5318 H         1 <0>         0.0000
@<TRIPOS>BOND
     1    1    2 ar
     2    1    4 ar
     3    1   18 1
     4    2    7 ar
     5    2   19 1
     6    3    5 2
     7    3    8 1
     8    3   20 1
     9    4   12 ar
    10    4   21 1
    11    5   17 1
    12    5   22 1
    13    6    8 2
    14    6   17 1
    15    6   23 1
    16    7    9 ar
    17    7   11 1
    18    8   10 1
    19    9   12 ar
    20    9   16 1
    21   10   13 1
    22   10   14 2
    23   11   13 2
    24   11   15 1
    25   14   15 1
    26   16   24 1
