@<TRIPOS>MOLECULE
*****
   23    23     0     0     0
SMALL
NO_CHARGES

@<TRIPOS>ATOM
      1 C1          5.4696   -2.2381    2.9419 C.1       1 <0>         0.0000
      2 C2          4.3500   -1.9496    2.5753 C.1       1 <0>         0.0000
      3 C3          1.9548   -0.8864   -0.0615 C.ar      1 <0>         0.0000
      4 C4          0.7401   -0.8309    0.6309 C.ar      1 <0>         0.0000
      5 C5          3.1195   -1.2569    0.6056 C.ar      1 <0>         0.0000
      6 C6          0.7055   -1.1480    1.9875 C.ar      1 <0>         0.0000
      7 C7          3.1025   -1.5815    1.9778 C.ar      1 <0>         0.0000
      8 C8          1.8702   -1.5243    2.6757 C.ar      1 <0>         0.0000
      9 C9          1.8001   -1.8594    4.1295 C.2       1 <0>         0.0000
     10 C10        -1.0809   -1.8227    6.3740 C.3       1 <0>         0.0000
     11 C11         0.3808   -2.0366    6.0265 C.3       1 <0>         0.0000
     12 O1          2.7415   -2.2092    4.8163 O.2       1 <0>         0.0000
     13 O2          0.5397   -1.7292    4.6185 O.3       1 <0>         0.0000
     14 H1          6.4276   -2.5021    3.3366 H         1 <0>         0.0000
     15 H2          1.9939   -0.6410   -1.1195 H         1 <0>         0.0000
     16 H3         -0.1725   -0.5425    0.1167 H         1 <0>         0.0000
     17 H4          4.0659   -1.3021    0.0760 H         1 <0>         0.0000
     18 H5         -0.2304   -1.1076    2.5317 H         1 <0>         0.0000
     19 H6         -1.3795   -0.7863    6.1900 H         1 <0>         0.0000
     20 H7         -1.7248   -2.4800    5.7818 H         1 <0>         0.0000
     21 H8         -1.2439   -2.0449    7.4336 H         1 <0>         0.0000
     22 H9          0.6979   -3.0692    6.1973 H         1 <0>         0.0000
     23 H10         1.0412   -1.3838    6.6042 H         1 <0>         0.0000
@<TRIPOS>BOND
     1    1    2 3
     2    1   14 1
     3    2    7 1
     4    3    4 ar
     5    3    5 ar
     6    3   15 1
     7    4    6 ar
     8    4   16 1
     9    5    7 ar
    10    5   17 1
    11    6    8 ar
    12    6   18 1
    13    7    8 ar
    14    8    9 1
    15    9   12 2
    16    9   13 1
    17   10   11 1
    18   10   19 1
    19   10   20 1
    20   10   21 1
    21   11   13 1
    22   11   22 1
    23   11   23 1
