@<TRIPOS>MOLECULE
*****
   44    46     0     0     0
SMALL
NO_CHARGES

@<TRIPOS>ATOM
      1 C1         -1.1667   -7.4311    3.5974 C.ar      1 <0>         0.0000
      2 C2         -1.1105   -7.0618    2.2512 C.ar      1 <0>         0.0000
      3 C3         -2.4908   -5.4910    4.0784 C.ar      1 <0>         0.0000
      4 C4         -3.5574   -1.8805    1.5803 C.2       1 <0>         0.0000
      5 C5         -1.8605   -6.6541    4.5357 C.ar      1 <0>         0.0000
      6 C6         -1.7420   -5.9024    1.7838 C.ar      1 <0>         0.0000
      7 C7         -2.4230   -5.1269    2.7344 C.ar      1 <0>         0.0000
      8 C8         -4.7365   -2.6694    1.7519 C.2       1 <0>         0.0000
      9 C9         -2.5329   -2.7374    1.9733 C.2       1 <0>         0.0000
     10 C10        -3.5105   -0.4713    1.1749 C.2       1 <0>         0.0000
     11 C11        -2.0843   -1.6166   -1.1443 C.3       1 <0>         0.0000
     12 C12        -0.9862    0.5310   -1.1220 C.3       1 <0>         0.0000
     13 C13        -0.8384   -2.1979   -1.8081 C.3       1 <0>         0.0000
     14 C14         0.2334   -0.1187   -1.7637 C.3       1 <0>         0.0000
     15 C15        -1.9047   -7.0384    5.9963 C.3       1 <0>         0.0000
     16 C16        -1.6999   -5.5101    0.3273 C.3       1 <0>         0.0000
     17 C17        -6.1505   -2.2562    1.4835 C.3       1 <0>         0.0000
     18 N1         -4.4503   -3.9002    2.1779 N.2       1 <0>         0.0000
     19 N2         -2.7090    0.1753    0.3974 N.2       1 <0>         0.0000
     20 N3         -3.0902   -3.9320    2.3174 N.pl3     1 <0>         0.0000
     21 N4         -1.7045   -0.4623   -0.3125 N.pl3     1 <0>         0.0000
     22 O1         -0.1367   -1.2298   -2.5804 O.3       1 <0>         0.0000
     23 Cl1        -0.8459   -2.4501    2.1292 Cl        1 <0>         0.0000
     24 H1         -0.6700   -8.3433    3.9209 H         1 <0>         0.0000
     25 H2         -0.5771   -7.6942    1.5454 H         1 <0>         0.0000
     26 H3         -3.0464   -4.8552    4.7627 H         1 <0>         0.0000
     27 H4         -4.2709    0.1655    1.6287 H         1 <0>         0.0000
     28 H5         -2.8102   -1.3017   -1.9124 H         1 <0>         0.0000
     29 H6         -2.5510   -2.3912   -0.5379 H         1 <0>         0.0000
     30 H7         -0.6762    1.3459   -0.4637 H         1 <0>         0.0000
     31 H8         -1.6425    0.9477   -1.9029 H         1 <0>         0.0000
     32 H9         -0.1746   -2.6118   -1.0339 H         1 <0>         0.0000
     33 H10        -1.1213   -3.0000   -2.4952 H         1 <0>         0.0000
     34 H11         0.7444    0.5913   -2.4188 H         1 <0>         0.0000
     35 H12         0.9344   -0.4490   -0.9816 H         1 <0>         0.0000
     36 H13        -1.1000   -6.5458    6.5552 H         1 <0>         0.0000
     37 H14        -2.8520   -6.7445    6.4579 H         1 <0>         0.0000
     38 H15        -1.7836   -8.1175    6.1278 H         1 <0>         0.0000
     39 H16        -2.6790   -5.1660   -0.0187 H         1 <0>         0.0000
     40 H17        -0.9853   -4.6974    0.1567 H         1 <0>         0.0000
     41 H18        -1.3950   -6.3564   -0.2933 H         1 <0>         0.0000
     42 H19        -6.2799   -1.9409    0.4427 H         1 <0>         0.0000
     43 H20        -6.8245   -3.0919    1.6840 H         1 <0>         0.0000
     44 H21        -6.4441   -1.4128    2.1186 H         1 <0>         0.0000
@<TRIPOS>BOND
     1    1    2 ar
     2    1    5 ar
     3    1   24 1
     4    2    6 ar
     5    2   25 1
     6    3    5 ar
     7    3    7 ar
     8    3   26 1
     9    4    8 1
    10    4    9 2
    11    4   10 1
    12    5   15 1
    13    6    7 ar
    14    6   16 1
    15    7   20 1
    16    8   17 1
    17    8   18 2
    18    9   20 1
    19    9   23 1
    20   10   19 2
    21   10   27 1
    22   11   13 1
    23   11   21 1
    24   11   28 1
    25   11   29 1
    26   12   14 1
    27   12   21 1
    28   12   30 1
    29   12   31 1
    30   13   22 1
    31   13   32 1
    32   13   33 1
    33   14   22 1
    34   14   34 1
    35   14   35 1
    36   15   36 1
    37   15   37 1
    38   15   38 1
    39   16   39 1
    40   16   40 1
    41   16   41 1
    42   17   42 1
    43   17   43 1
    44   17   44 1
    45   18   20 1
    46   19   21 1
