@<TRIPOS>MOLECULE
*****
   19    20     0     0     0
SMALL
NO_CHARGES

@<TRIPOS>ATOM
      1 C1          1.5624   -1.2647    5.8002 C.1       1 <0>         0.0000
      2 C2          0.7677    0.3775    1.9281 C.ar      1 <0>         0.0000
      3 C3          1.0292   -0.1439    3.1952 C.ar      1 <0>         0.0000
      4 C4          0.4006   -1.8811    1.1756 C.ar      1 <0>         0.0000
      5 C5          0.4481   -0.5110    0.9031 C.ar      1 <0>         0.0000
      6 C6          0.9606   -1.5306    3.3857 C.ar      1 <0>         0.0000
      7 C7          0.4469   -3.4298    5.1003 C.3       1 <0>         0.0000
      8 C8          1.8926   -3.5486    4.7530 C.3       1 <0>         0.0000
      9 C9          1.2291   -2.1629    4.7194 C.3       1 <0>         0.0000
     10 N1          1.8313   -0.5417    6.6728 N.1       1 <0>         0.0000
     11 N2          0.6517   -2.3759    2.3900 N.ar      1 <0>         0.0000
     12 Br1         0.0762    0.1233   -0.8612 Br        1 <0>         0.0000
     13 H1          0.8122    1.4467    1.7462 H         1 <0>         0.0000
     14 H2          1.2817    0.5165    4.0185 H         1 <0>         0.0000
     15 H3          0.1537   -2.5944    0.3924 H         1 <0>         0.0000
     16 H4         -0.2780   -3.7463    4.3583 H         1 <0>         0.0000
     17 H5          0.1473   -3.5193    6.1390 H         1 <0>         0.0000
     18 H6          2.6108   -3.7219    5.5473 H         1 <0>         0.0000
     19 H7          2.1461   -3.9458    3.7763 H         1 <0>         0.0000
@<TRIPOS>BOND
     1    1    9 1
     2    1   10 3
     3    2    3 ar
     4    2    5 ar
     5    2   13 1
     6    3    6 ar
     7    3   14 1
     8    4    5 ar
     9    4   11 ar
    10    4   15 1
    11    5   12 1
    12    6    9 1
    13    6   11 ar
    14    7    8 1
    15    7    9 1
    16    7   16 1
    17    7   17 1
    18    8    9 1
    19    8   18 1
    20    8   19 1
