@<TRIPOS>MOLECULE
*****
   38    40     0     0     0
SMALL
NO_CHARGES

@<TRIPOS>ATOM
      1 C1         -6.6651   -2.3176    1.1590 C.2       1 <0>         0.0000
      2 C2         -0.4435   -1.3525   -0.5307 C.2       1 <0>         0.0000
      3 C3         -1.1414   -0.5465    0.3544 C.2       1 <0>         0.0000
      4 C4         -5.8799   -1.0347   -0.4722 C.2       1 <0>         0.0000
      5 C5         -4.9884   -2.0761   -0.6002 C.2       1 <0>         0.0000
      6 C6         -2.5233   -1.7282   -0.9383 C.2       1 <0>         0.0000
      7 C7          1.0323   -1.4728   -0.5743 C.2       1 <0>         0.0000
      8 C8         -0.6247    0.3326    1.4476 C.3       1 <0>         0.0000
      9 C9          1.1586    1.0072   -0.2349 C.3       1 <0>         0.0000
     10 C10         0.2906    1.4892    0.9537 C.3       1 <0>         0.0000
     11 C11        -5.9185    0.2182   -1.3012 C.3       1 <0>         0.0000
     12 C12         1.1873    1.9289    2.1209 C.3       1 <0>         0.0000
     13 C13        -0.5676    2.6667    0.4650 C.3       1 <0>         0.0000
     14 C14        -3.8180   -2.2078   -1.5365 C.3       1 <0>         0.0000
     15 N1         -6.8262   -1.1892    0.5298 N.2       1 <0>         0.0000
     16 N2         -1.3158   -2.0836   -1.3203 N.2       1 <0>         0.0000
     17 N3         -2.4689   -0.7943    0.0772 N.pl3     1 <0>         0.0000
     18 N4          1.7019   -0.3488   -0.0935 N.am      1 <0>         0.0000
     19 O1          1.6355   -2.4778   -0.9377 O.2       1 <0>         0.0000
     20 S1         -5.3422   -3.2994    0.5934 S.3       1 <0>         0.0000
     21 H1         -7.2956   -2.6500    1.9773 H         1 <0>         0.0000
     22 H2         -1.4522    0.7513    2.0311 H         1 <0>         0.0000
     23 H3         -0.0428   -0.2932    2.1327 H         1 <0>         0.0000
     24 H4          0.5681    1.0689   -1.1554 H         1 <0>         0.0000
     25 H5          2.0018    1.6943   -0.3537 H         1 <0>         0.0000
     26 H6         -6.8599    0.2770   -1.8573 H         1 <0>         0.0000
     27 H7         -5.8695    1.1021   -0.6568 H         1 <0>         0.0000
     28 H8         -5.0927    0.2651   -2.0138 H         1 <0>         0.0000
     29 H9          1.7749    2.8144    1.8536 H         1 <0>         0.0000
     30 H10         1.8818    1.1284    2.3979 H         1 <0>         0.0000
     31 H11         0.5912    2.1787    3.0061 H         1 <0>         0.0000
     32 H12         0.0541    3.4535    0.0222 H         1 <0>         0.0000
     33 H13        -1.1285    3.1139    1.2931 H         1 <0>         0.0000
     34 H14        -1.2854    2.3411   -0.2968 H         1 <0>         0.0000
     35 H15        -3.6717   -3.2441   -1.8513 H         1 <0>         0.0000
     36 H16        -4.0289   -1.6416   -2.4504 H         1 <0>         0.0000
     37 H17        -3.2690   -0.4242    0.5769 H         1 <0>         0.0000
     38 H18         2.7063   -0.4497   -0.1885 H         1 <0>         0.0000
@<TRIPOS>BOND
     1    1   15 2
     2    1   20 1
     3    1   21 1
     4    2    3 2
     5    2    7 1
     6    2   16 1
     7    3    8 1
     8    3   17 1
     9    4    5 2
    10    4   11 1
    11    4   15 1
    12    5   14 1
    13    5   20 1
    14    6   14 1
    15    6   16 2
    16    6   17 1
    17    7   18 am
    18    7   19 2
    19    8   10 1
    20    8   22 1
    21    8   23 1
    22    9   10 1
    23    9   18 1
    24    9   24 1
    25    9   25 1
    26   10   12 1
    27   10   13 1
    28   11   26 1
    29   11   27 1
    30   11   28 1
    31   12   29 1
    32   12   30 1
    33   12   31 1
    34   13   32 1
    35   13   33 1
    36   13   34 1
    37   14   35 1
    38   14   36 1
    39   17   37 1
    40   18   38 1
