@<TRIPOS>MOLECULE
*****
   44    46     0     0     0
SMALL
NO_CHARGES

@<TRIPOS>ATOM
      1 C1         -4.7148   -5.0632    2.4772 C.ar      1 <0>         0.0000
      2 C2         -3.5459   -5.5384    1.8764 C.ar      1 <0>         0.0000
      3 C3         -5.1764   -3.7374    0.5344 C.ar      1 <0>         0.0000
      4 C4         -2.9508   -2.5578   -3.1075 C.2       1 <0>         0.0000
      5 C5         -5.5484   -4.1486    1.8197 C.ar      1 <0>         0.0000
      6 C6         -3.1573   -5.1218    0.5973 C.ar      1 <0>         0.0000
      7 C7         -4.0066   -4.2150   -0.0560 C.ar      1 <0>         0.0000
      8 C8         -3.2620   -3.9054   -3.4819 C.2       1 <0>         0.0000
      9 C9         -3.2422   -2.5225   -1.7490 C.2       1 <0>         0.0000
     10 C10        -2.5411   -1.4169   -3.9341 C.2       1 <0>         0.0000
     11 C11        -0.0678   -3.0440   -4.1333 C.3       1 <0>         0.0000
     12 C12         0.0874   -1.9601   -6.2792 C.3       1 <0>         0.0000
     13 C13         1.0523   -2.1341   -3.6265 C.3       1 <0>         0.0000
     14 C14         1.2072   -1.0777   -5.7279 C.3       1 <0>         0.0000
     15 C15        -6.7952   -3.6056    2.4782 C.3       1 <0>         0.0000
     16 C16        -1.8890   -5.6188   -0.0503 C.3       1 <0>         0.0000
     17 C17        -3.2213   -4.5140   -4.8473 C.3       1 <0>         0.0000
     18 N1         -3.6801   -4.6162   -2.4332 N.2       1 <0>         0.0000
     19 N2         -1.6637   -1.3275   -4.8761 N.2       1 <0>         0.0000
     20 N3         -3.6632   -3.7595   -1.3669 N.pl3     1 <0>         0.0000
     21 N4         -0.8403   -2.3934   -5.2173 N.pl3     1 <0>         0.0000
     22 O1          1.9260   -1.7493   -4.6886 O.3       1 <0>         0.0000
     23 Cl1        -3.0735   -1.2144   -0.6390 Cl        1 <0>         0.0000
     24 H1         -4.9808   -5.4093    3.4737 H         1 <0>         0.0000
     25 H2         -2.9172   -6.2437    2.4148 H         1 <0>         0.0000
     26 H3         -5.7989   -3.0422   -0.0230 H         1 <0>         0.0000
     27 H4         -3.0863   -0.4881   -3.7646 H         1 <0>         0.0000
     28 H5          0.3673   -3.9552   -4.5577 H         1 <0>         0.0000
     29 H6         -0.7248   -3.3381   -3.3161 H         1 <0>         0.0000
     30 H7         -0.4883   -1.4278   -7.0389 H         1 <0>         0.0000
     31 H8          0.5150   -2.8616   -6.7312 H         1 <0>         0.0000
     32 H9          0.6236   -1.2408   -3.1477 H         1 <0>         0.0000
     33 H10         1.6709   -2.6597   -2.8932 H         1 <0>         0.0000
     34 H11         1.9400   -0.8403   -6.5042 H         1 <0>         0.0000
     35 H12         0.7801   -0.1399   -5.3434 H         1 <0>         0.0000
     36 H13        -6.5798   -2.6739    3.0151 H         1 <0>         0.0000
     37 H14        -7.5737   -3.3866    1.7415 H         1 <0>         0.0000
     38 H15        -7.2043   -4.3156    3.2028 H         1 <0>         0.0000
     39 H16        -2.1125   -6.2704   -0.9001 H         1 <0>         0.0000
     40 H17        -1.2908   -4.7862   -0.4362 H         1 <0>         0.0000
     41 H18        -1.2796   -6.1746    0.6667 H         1 <0>         0.0000
     42 H19        -2.2155   -4.4618   -5.2737 H         1 <0>         0.0000
     43 H20        -3.5533   -5.5535   -4.7972 H         1 <0>         0.0000
     44 H21        -3.8771   -3.9653   -5.5317 H         1 <0>         0.0000
@<TRIPOS>BOND
     1    1    2 ar
     2    1    5 ar
     3    1   24 1
     4    2    6 ar
     5    2   25 1
     6    3    5 ar
     7    3    7 ar
     8    3   26 1
     9    4    8 1
    10    4    9 2
    11    4   10 1
    12    5   15 1
    13    6    7 ar
    14    6   16 1
    15    7   20 1
    16    8   17 1
    17    8   18 2
    18    9   20 1
    19    9   23 1
    20   10   19 2
    21   10   27 1
    22   11   13 1
    23   11   21 1
    24   11   28 1
    25   11   29 1
    26   12   14 1
    27   12   21 1
    28   12   30 1
    29   12   31 1
    30   13   22 1
    31   13   32 1
    32   13   33 1
    33   14   22 1
    34   14   34 1
    35   14   35 1
    36   15   36 1
    37   15   37 1
    38   15   38 1
    39   16   39 1
    40   16   40 1
    41   16   41 1
    42   17   42 1
    43   17   43 1
    44   17   44 1
    45   18   20 1
    46   19   21 1
