@<TRIPOS>MOLECULE
*****
   25    26     0     0     0
SMALL
NO_CHARGES

@<TRIPOS>ATOM
      1 C1         -5.0245   -0.5577   -4.7657 C.ar      1 <0>         0.0000
      2 C2         -5.0011    0.3931   -3.7420 C.ar      1 <0>         0.0000
      3 C3         -2.6418   -0.9493   -4.4139 C.ar      1 <0>         0.0000
      4 C4         -2.6160    0.0063   -3.3887 C.ar      1 <0>         0.0000
      5 C5         -3.8363   -1.2141   -5.0717 C.ar      1 <0>         0.0000
      6 C6         -3.8175    0.6556   -3.0632 C.ar      1 <0>         0.0000
      7 C7          1.6727    3.0007   -0.8979 C.3       1 <0>         0.0000
      8 C8          1.1870    1.8167   -0.0684 C.3       1 <0>         0.0000
      9 C9          0.4628    1.5460   -2.2233 C.3       1 <0>         0.0000
     10 C10        -1.0538    1.5353   -2.3753 C.3       1 <0>         0.0000
     11 O1          0.8641    2.9084   -2.0789 O.3       1 <0>         0.0000
     12 O2          0.9084    0.8377   -1.0758 O.3       1 <0>         0.0000
     13 O3         -1.4306    0.1972   -2.7425 O.3       1 <0>         0.0000
     14 F1         -3.8370   -2.1441   -6.0612 F         1 <0>         0.0000
     15 F2         -3.8386    1.5576   -2.0428 F         1 <0>         0.0000
     16 H1         -5.9350   -0.7904   -5.3074 H         1 <0>         0.0000
     17 H2         -5.9000    0.9261   -3.4481 H         1 <0>         0.0000
     18 H3         -1.7289   -1.4704   -4.6821 H         1 <0>         0.0000
     19 H4          1.4930    3.9738   -0.4349 H         1 <0>         0.0000
     20 H5          2.7348    2.9022   -1.1564 H         1 <0>         0.0000
     21 H6          1.9386    1.4030    0.6068 H         1 <0>         0.0000
     22 H7          0.2802    2.0661    0.4990 H         1 <0>         0.0000
     23 H8          0.9401    1.0836   -3.0959 H         1 <0>         0.0000
     24 H9         -1.3390    2.2422   -3.1616 H         1 <0>         0.0000
     25 H10        -1.5271    1.8305   -1.4359 H         1 <0>         0.0000
@<TRIPOS>BOND
     1    1    2 ar
     2    1    5 ar
     3    1   16 1
     4    2    6 ar
     5    2   17 1
     6    3    4 ar
     7    3    5 ar
     8    3   18 1
     9    4    6 ar
    10    4   13 1
    11    5   14 1
    12    6   15 1
    13    7    8 1
    14    7   11 1
    15    7   19 1
    16    7   20 1
    17    8   12 1
    18    8   21 1
    19    8   22 1
    20    9   10 1
    21    9   12 1
    22    9   11 1
    23    9   23 1
    24   10   13 1
    25   10   24 1
    26   10   25 1
