@<TRIPOS>MOLECULE
*****
   18    18     0     0     0
SMALL
NO_CHARGES

@<TRIPOS>ATOM
      1 C1          1.5850    0.5470    1.8447 C.2       1 <0>         0.0000
      2 C2          0.3618    0.0946    1.2644 C.2       1 <0>         0.0000
      3 C3          1.4757    0.3808    3.2154 C.2       1 <0>         0.0000
      4 C4         -0.4571   -0.3312    2.2972 C.2       1 <0>         0.0000
      5 C5         -1.8417   -0.8966    2.2851 C.3       1 <0>         0.0000
      6 C6         -2.8959    0.0967    2.7928 C.3       1 <0>         0.0000
      7 N1          0.2365   -0.1544    3.4758 N.pl3     1 <0>         0.0000
      8 N2         -1.9104   -2.0898    3.1491 N.3       1 <0>         0.0000
      9 F1         -2.5593    0.6053    4.0235 F         1 <0>         0.0000
     10 F2         -3.0008    1.1528    1.9237 F         1 <0>         0.0000
     11 H1          2.4457    0.9440    1.3222 H         1 <0>         0.0000
     12 H2          0.1021    0.0873    0.2131 H         1 <0>         0.0000
     13 H3          2.1743    0.5937    4.0130 H         1 <0>         0.0000
     14 H4         -2.1090   -1.0887    1.2348 H         1 <0>         0.0000
     15 H5         -3.8899   -0.3552    2.8894 H         1 <0>         0.0000
     16 H6         -0.1478   -0.3705    4.3857 H         1 <0>         0.0000
     17 H7         -1.1880   -2.7463    2.8596 H         1 <0>         0.0000
     18 H8         -2.8067   -2.5633    3.0393 H         1 <0>         0.0000
@<TRIPOS>BOND
     1    1    2 1
     2    1    3 2
     3    1   11 1
     4    2    4 2
     5    2   12 1
     6    3    7 1
     7    3   13 1
     8    4    5 1
     9    4    7 1
    10    5    6 1
    11    5    8 1
    12    5   14 1
    13    6    9 1
    14    6   10 1
    15    6   15 1
    16    7   16 1
    17    8   17 1
    18    8   18 1
