@<TRIPOS>MOLECULE
*****
   32    34     0     0     0
SMALL
NO_CHARGES

@<TRIPOS>ATOM
      1 C1          6.7518   -4.0909    2.3005 C.1       1 <0>         0.0000
      2 C2          8.2515    2.9597    5.6388 C.ar      1 <0>         0.0000
      3 C3          8.4757    4.0837    4.8392 C.ar      1 <0>         0.0000
      4 C4          6.1394   -7.1665    5.5632 C.2       1 <0>         0.0000
      5 C5          7.9905    1.7329    5.0341 C.ar      1 <0>         0.0000
      6 C6          8.4353    3.9636    3.4485 C.ar      1 <0>         0.0000
      7 C7          6.3497   -6.1192    4.6340 C.2       1 <0>         0.0000
      8 C8          6.2369   -6.7486    6.8747 C.2       1 <0>         0.0000
      9 C9          7.9489    1.6066    3.6325 C.ar      1 <0>         0.0000
     10 C10         8.1748    2.7407    2.8131 C.ar      1 <0>         0.0000
     11 C11         6.6094   -4.8947    5.2447 C.2       1 <0>         0.0000
     12 C12         7.6649    0.2645    3.0973 C.2       1 <0>         0.0000
     13 C13         7.2354   -1.7996    3.0933 C.2       1 <0>         0.0000
     14 C14         6.8756   -3.5937    4.7081 C.2       1 <0>         0.0000
     15 C15         6.9473   -3.1964    3.3991 C.2       1 <0>         0.0000
     16 C16         8.1484    2.6939    1.3051 C.3       1 <0>         0.0000
     17 N1          6.5875   -4.8450    1.4267 N.1       1 <0>         0.0000
     18 N2          7.4460   -0.8214    3.9319 N.2       1 <0>         0.0000
     19 N3          7.5913   -0.0370    1.8111 N.2       1 <0>         0.0000
     20 O1          7.3040   -1.4176    1.8042 O.3       1 <0>         0.0000
     21 S1          6.5870   -5.0704    6.9925 S.3       1 <0>         0.0000
     22 H1          8.2797    3.0378    6.7222 H         1 <0>         0.0000
     23 H2          8.6810    5.0497    5.2936 H         1 <0>         0.0000
     24 H3          5.9239   -8.1916    5.2815 H         1 <0>         0.0000
     25 H4          7.8141    0.8501    5.6383 H         1 <0>         0.0000
     26 H5          8.6107    4.8425    2.8331 H         1 <0>         0.0000
     27 H6          6.3133   -6.2529    3.5605 H         1 <0>         0.0000
     28 H7          6.1203   -7.3439    7.7716 H         1 <0>         0.0000
     29 H8          7.0477   -2.7961    5.4280 H         1 <0>         0.0000
     30 H9          8.8924    1.9952    0.9117 H         1 <0>         0.0000
     31 H10         7.1811    2.3465    0.9307 H         1 <0>         0.0000
     32 H11         8.3476    3.6862    0.8924 H         1 <0>         0.0000
@<TRIPOS>BOND
     1    1   15 1
     2    1   17 3
     3    2    3 ar
     4    2    5 ar
     5    2   22 1
     6    3    6 ar
     7    3   23 1
     8    4    7 1
     9    4    8 2
    10    4   24 1
    11    5    9 ar
    12    5   25 1
    13    6   10 ar
    14    6   26 1
    15    7   11 2
    16    7   27 1
    17    8   21 1
    18    8   28 1
    19    9   10 ar
    20    9   12 1
    21   10   16 1
    22   11   14 1
    23   11   21 1
    24   12   18 1
    25   12   19 2
    26   13   15 1
    27   13   18 2
    28   13   20 1
    29   14   15 2
    30   14   29 1
    31   16   30 1
    32   16   31 1
    33   16   32 1
    34   19   20 1
