@<TRIPOS>MOLECULE
*****
   32    34     0     0     0
SMALL
NO_CHARGES

@<TRIPOS>ATOM
      1 C1          7.9341   -3.8482    4.5477 C.1       1 <0>         0.0000
      2 C2          0.5786   -2.4249    1.3591 C.ar      1 <0>         0.0000
      3 C3          0.4344   -1.0686    1.0535 C.ar      1 <0>         0.0000
      4 C4          1.7595   -2.8702    1.9491 C.ar      1 <0>         0.0000
      5 C5          1.4669   -0.1759    1.3495 C.ar      1 <0>         0.0000
      6 C6          7.4527   -0.6983    1.0203 C.2       1 <0>         0.0000
      7 C7          7.9049    0.1954    0.0943 C.2       1 <0>         0.0000
      8 C8          9.7472   -0.6980    1.4776 C.2       1 <0>         0.0000
      9 C9          2.8047   -1.9745    2.2368 C.ar      1 <0>         0.0000
     10 C10         8.5137   -1.2339    1.8407 C.2       1 <0>         0.0000
     11 C11         2.6652   -0.5990    1.9428 C.ar      1 <0>         0.0000
     12 C12         4.0213   -2.5250    2.8598 C.2       1 <0>         0.0000
     13 C13         6.0494   -2.8720    3.3365 C.2       1 <0>         0.0000
     14 C14         8.4832   -2.2100    2.9054 C.2       1 <0>         0.0000
     15 C15         7.4942   -2.9212    3.5357 C.2       1 <0>         0.0000
     16 C16         3.7300    0.4267    2.2602 C.3       1 <0>         0.0000
     17 N1          8.3252   -4.5862    5.3601 N.1       1 <0>         0.0000
     18 N2          5.3052   -2.0718    2.6165 N.2       1 <0>         0.0000
     19 N3          3.9720   -3.5466    3.6943 N.2       1 <0>         0.0000
     20 O1          5.3163   -3.7862    4.0116 O.3       1 <0>         0.0000
     21 S1          9.6290    0.4223    0.1871 S.3       1 <0>         0.0000
     22 H1         -0.2186   -3.1289    1.1375 H         1 <0>         0.0000
     23 H2         -0.4799   -0.7047    0.5917 H         1 <0>         0.0000
     24 H3          1.8905   -3.9210    2.1883 H         1 <0>         0.0000
     25 H4          1.3396    0.8803    1.1237 H         1 <0>         0.0000
     26 H5          6.4168   -0.9787    1.1428 H         1 <0>         0.0000
     27 H6          7.3298    0.7411   -0.6428 H         1 <0>         0.0000
     28 H7         10.7109   -0.9240    1.9178 H         1 <0>         0.0000
     29 H8          9.4752   -2.4415    3.2869 H         1 <0>         0.0000
     30 H9          4.1659    0.2736    3.2505 H         1 <0>         0.0000
     31 H10         4.5559    0.3822    1.5444 H         1 <0>         0.0000
     32 H11         3.3063    1.4339    2.2236 H         1 <0>         0.0000
@<TRIPOS>BOND
     1    1   15 1
     2    1   17 3
     3    2    3 ar
     4    2    4 ar
     5    2   22 1
     6    3    5 ar
     7    3   23 1
     8    4    9 ar
     9    4   24 1
    10    5   11 ar
    11    5   25 1
    12    6    7 2
    13    6   10 1
    14    6   26 1
    15    7   21 1
    16    7   27 1
    17    8   10 2
    18    8   21 1
    19    8   28 1
    20    9   11 ar
    21    9   12 1
    22   10   14 1
    23   11   16 1
    24   12   18 1
    25   12   19 2
    26   13   15 1
    27   13   18 2
    28   13   20 1
    29   14   15 2
    30   14   29 1
    31   16   30 1
    32   16   31 1
    33   16   32 1
    34   19   20 1
