@<TRIPOS>MOLECULE
*****
   36    39     0     0     0
SMALL
NO_CHARGES

@<TRIPOS>ATOM
      1 C1          9.2206    2.5841    4.3134 C.ar      1 <0>         0.0000
      2 C2          8.9590    1.2488    4.6446 C.ar      1 <0>         0.0000
      3 C3          8.2965    3.2998    3.5447 C.ar      1 <0>         0.0000
      4 C4          7.7859    0.6324    4.2126 C.ar      1 <0>         0.0000
      5 C5          7.1208    2.6871    3.1100 C.ar      1 <0>         0.0000
      6 C6          4.1317   -0.9471    2.7559 C.2       1 <0>         0.0000
      7 C7          6.8513    1.3464    3.4384 C.ar      1 <0>         0.0000
      8 C8          3.4696    0.0141    2.0221 C.2       1 <0>         0.0000
      9 C9          0.4604    0.4217    0.1352 C.2       1 <0>         0.0000
     10 C10         0.2603   -0.8810    0.5847 C.2       1 <0>         0.0000
     11 C11         2.2012   -0.0558    1.3316 C.2       1 <0>         0.0000
     12 C12         5.6250    0.6717    2.9978 C.2       1 <0>         0.0000
     13 C13        -0.3904    1.3196   -0.6972 C.2       1 <0>         0.0000
     14 C14        -0.8052   -1.9182    0.3974 C.3       1 <0>         0.0000
     15 C15        -2.0752   -1.4022   -0.2839 C.3       1 <0>         0.0000
     16 C16        -1.7883   -0.6338   -1.5814 C.3       1 <0>         0.0000
     17 N1          5.3299   -0.5757    3.2967 N.2       1 <0>         0.0000
     18 N2          1.6641    0.9090    0.6123 N.2       1 <0>         0.0000
     19 N3          1.3789   -1.1662    1.3428 N.pl3     1 <0>         0.0000
     20 N4         -1.4651    0.7711   -1.3636 N.am      1 <0>         0.0000
     21 O1         -0.1612    2.5245   -0.7779 O.2       1 <0>         0.0000
     22 S1          4.4108    1.4772    2.0080 S.3       1 <0>         0.0000
     23 H1         10.1361    3.0625    4.6515 H         1 <0>         0.0000
     24 H2          9.6731    0.6873    5.2415 H         1 <0>         0.0000
     25 H3          8.4909    4.3365    3.2835 H         1 <0>         0.0000
     26 H4          7.5732   -0.4015    4.4633 H         1 <0>         0.0000
     27 H5          6.4138    3.2592    2.5145 H         1 <0>         0.0000
     28 H6          3.7740   -1.9586    2.9261 H         1 <0>         0.0000
     29 H7         -0.3903   -2.7419   -0.2006 H         1 <0>         0.0000
     30 H8         -1.0680   -2.3511    1.3713 H         1 <0>         0.0000
     31 H9         -2.7132   -2.2639   -0.5082 H         1 <0>         0.0000
     32 H10        -2.6356   -0.7485    0.3921 H         1 <0>         0.0000
     33 H11        -0.9929   -1.1409   -2.1469 H         1 <0>         0.0000
     34 H12        -2.6811   -0.6465   -2.2114 H         1 <0>         0.0000
     35 H13         1.5410   -2.0326    1.8407 H         1 <0>         0.0000
     36 H14        -1.9429    1.4584   -1.9340 H         1 <0>         0.0000
@<TRIPOS>BOND
     1    1    3 ar
     2    1    2 ar
     3    1   23 1
     4    2    4 ar
     5    2   24 1
     6    3    5 ar
     7    3   25 1
     8    4    7 ar
     9    4   26 1
    10    5    7 ar
    11    5   27 1
    12    6    8 2
    13    6   17 1
    14    6   28 1
    15    7   12 1
    16    8   11 1
    17    8   22 1
    18    9   10 2
    19    9   13 1
    20    9   18 1
    21   10   14 1
    22   10   19 1
    23   11   18 2
    24   11   19 1
    25   12   17 2
    26   12   22 1
    27   13   20 am
    28   13   21 2
    29   14   15 1
    30   14   29 1
    31   14   30 1
    32   15   16 1
    33   15   31 1
    34   15   32 1
    35   16   20 1
    36   16   33 1
    37   16   34 1
    38   19   35 1
    39   20   36 1
