@<TRIPOS>MOLECULE
*****
   38    40     0     0     0
SMALL
NO_CHARGES

@<TRIPOS>ATOM
      1 C1         -6.0427   -2.0158   -3.0229 C.2       1 <0>         0.0000
      2 C2          0.3774   -1.5549   -1.2796 C.2       1 <0>         0.0000
      3 C3         -0.6849   -1.1177   -0.4962 C.2       1 <0>         0.0000
      4 C4         -4.0086   -1.4687   -3.7245 C.2       1 <0>         0.0000
      5 C5         -3.6857   -2.6565   -3.1097 C.2       1 <0>         0.0000
      6 C6         -1.3832   -2.4829   -2.1250 C.2       1 <0>         0.0000
      7 C7          1.8378   -1.3010   -1.1700 C.2       1 <0>         0.0000
      8 C8         -0.8536   -0.1815    0.6627 C.3       1 <0>         0.0000
      9 C9          1.4826    0.7292    0.3471 C.3       1 <0>         0.0000
     10 C10         0.4400    0.2447    1.3842 C.3       1 <0>         0.0000
     11 C11        -3.0452   -0.5494   -4.4180 C.3       1 <0>         0.0000
     12 C12         0.9993   -0.9085    2.2315 C.3       1 <0>         0.0000
     13 C13         0.0974    1.4366    2.2959 C.3       1 <0>         0.0000
     14 C14        -2.3274   -3.2958   -2.9659 C.3       1 <0>         0.0000
     15 N1         -5.3486   -1.1221   -3.6672 N.2       1 <0>         0.0000
     16 N2         -0.0851   -2.3998   -2.2829 N.2       1 <0>         0.0000
     17 N3         -1.7952   -1.7265   -1.0506 N.pl3     1 <0>         0.0000
     18 N4          2.2589   -0.3179   -0.3002 N.am      1 <0>         0.0000
     19 O1          2.6610   -1.9624   -1.8010 O.2       1 <0>         0.0000
     20 S1         -5.1223   -3.3698   -2.4230 S.3       1 <0>         0.0000
     21 H1         -7.1139   -1.9543   -2.8622 H         1 <0>         0.0000
     22 H2         -1.3650    0.7225    0.3022 H         1 <0>         0.0000
     23 H3         -1.5299   -0.6380    1.3974 H         1 <0>         0.0000
     24 H4          0.9777    1.3626   -0.3968 H         1 <0>         0.0000
     25 H5          2.2079    1.3661    0.8614 H         1 <0>         0.0000
     26 H6         -3.3584   -0.3848   -5.4539 H         1 <0>         0.0000
     27 H7         -3.0295    0.4279   -3.9237 H         1 <0>         0.0000
     28 H8         -2.0294   -0.9487   -4.4172 H         1 <0>         0.0000
     29 H9          1.9551   -0.6279    2.6870 H         1 <0>         0.0000
     30 H10         1.1680   -1.8086    1.6365 H         1 <0>         0.0000
     31 H11         0.3021   -1.1573    3.0395 H         1 <0>         0.0000
     32 H12         0.9567    1.7137    2.9160 H         1 <0>         0.0000
     33 H13        -0.7330    1.1917    2.9672 H         1 <0>         0.0000
     34 H14        -0.1946    2.3169    1.7109 H         1 <0>         0.0000
     35 H15        -2.4269   -4.3000   -2.5384 H         1 <0>         0.0000
     36 H16        -1.8560   -3.4278   -3.9437 H         1 <0>         0.0000
     37 H17        -2.7550   -1.5944   -0.7533 H         1 <0>         0.0000
     38 H18         3.2664   -0.2167   -0.3092 H         1 <0>         0.0000
@<TRIPOS>BOND
     1    1   15 2
     2    1   20 1
     3    1   21 1
     4    2    3 2
     5    2    7 1
     6    2   16 1
     7    3    8 1
     8    3   17 1
     9    4    5 2
    10    4   11 1
    11    4   15 1
    12    5   14 1
    13    5   20 1
    14    6   14 1
    15    6   16 2
    16    6   17 1
    17    7   18 am
    18    7   19 2
    19    8   10 1
    20    8   22 1
    21    8   23 1
    22    9   10 1
    23    9   18 1
    24    9   24 1
    25    9   25 1
    26   10   12 1
    27   10   13 1
    28   11   26 1
    29   11   27 1
    30   11   28 1
    31   12   29 1
    32   12   30 1
    33   12   31 1
    34   13   32 1
    35   13   33 1
    36   13   34 1
    37   14   35 1
    38   14   36 1
    39   17   37 1
    40   18   38 1
