@<TRIPOS>MOLECULE
*****
   32    34     0     0     0
SMALL
NO_CHARGES

@<TRIPOS>ATOM
      1 C1          7.7092   -1.7089    3.5695 C.1       1 <0>         0.0000
      2 C2          0.6600   -1.6298    0.4996 C.ar      1 <0>         0.0000
      3 C3          0.6502   -0.2321    0.4654 C.ar      1 <0>         0.0000
      4 C4          1.6904   -2.2871    1.1658 C.ar      1 <0>         0.0000
      5 C5          1.6654    0.4854    1.1006 C.ar      1 <0>         0.0000
      6 C6          8.5521   -6.1070    5.3079 C.2       1 <0>         0.0000
      7 C7          8.1994   -7.3836    5.6316 C.2       1 <0>         0.0000
      8 C8          6.3112   -6.1002    4.6450 C.2       1 <0>         0.0000
      9 C9          2.7181   -1.5661    1.8026 C.ar      1 <0>         0.0000
     10 C10         7.4706   -5.3374    4.7299 C.2       1 <0>         0.0000
     11 C11         2.7159   -0.1510    1.7796 C.ar      1 <0>         0.0000
     12 C12         3.7682   -2.3420    2.4843 C.2       1 <0>         0.0000
     13 C13         5.6277   -2.9126    3.3064 C.2       1 <0>         0.0000
     14 C14         7.7297   -3.9655    4.3467 C.2       1 <0>         0.0000
     15 C15         7.0087   -2.9529    3.7684 C.2       1 <0>         0.0000
     16 C16         3.7672    0.6980    2.4571 C.3       1 <0>         0.0000
     17 N1          8.3085   -0.7198    3.4291 N.1       1 <0>         0.0000
     18 N2          5.0503   -1.8904    2.7293 N.2       1 <0>         0.0000
     19 N3          3.5558   -3.5813    2.8971 N.2       1 <0>         0.0000
     20 O1          4.7986   -3.9684    3.4407 O.3       1 <0>         0.0000
     21 S1          6.5342   -7.6912    5.2451 S.3       1 <0>         0.0000
     22 H1         -0.1229   -2.2007    0.0079 H         1 <0>         0.0000
     23 H2         -0.1443    0.2984   -0.0532 H         1 <0>         0.0000
     24 H3          1.7175   -3.3719    1.1939 H         1 <0>         0.0000
     25 H4          1.6453    1.5721    1.0747 H         1 <0>         0.0000
     26 H5          9.5482   -5.7057    5.4664 H         1 <0>         0.0000
     27 H6          8.8114   -8.1601    6.0717 H         1 <0>         0.0000
     28 H7          5.3470   -5.8054    4.2656 H         1 <0>         0.0000
     29 H8          8.7517   -3.6689    4.5716 H         1 <0>         0.0000
     30 H9          3.9157    0.4062    3.5004 H         1 <0>         0.0000
     31 H10         4.7403    0.5977    1.9705 H         1 <0>         0.0000
     32 H11         3.4712    1.7500    2.4334 H         1 <0>         0.0000
@<TRIPOS>BOND
     1    1   15 1
     2    1   17 3
     3    2    3 ar
     4    2    4 ar
     5    2   22 1
     6    3    5 ar
     7    3   23 1
     8    4    9 ar
     9    4   24 1
    10    5   11 ar
    11    5   25 1
    12    6    7 2
    13    6   10 1
    14    6   26 1
    15    7   21 1
    16    7   27 1
    17    8   10 2
    18    8   21 1
    19    8   28 1
    20    9   11 ar
    21    9   12 1
    22   10   14 1
    23   11   16 1
    24   12   18 1
    25   12   19 2
    26   13   15 1
    27   13   18 2
    28   13   20 1
    29   14   15 2
    30   14   29 1
    31   16   30 1
    32   16   31 1
    33   16   32 1
    34   19   20 1
