@<TRIPOS>MOLECULE
*****
   24    26     0     0     0
SMALL
NO_CHARGES

@<TRIPOS>ATOM
      1 C1         -0.6706   -1.3325    2.8379 C.ar      1 <0>         0.0000
      2 C2          0.5586   -1.0820    3.4321 C.ar      1 <0>         0.0000
      3 C3          6.7122    0.2419    5.9203 C.2       1 <0>         0.0000
      4 C4         -0.7664   -1.1690    1.4500 C.ar      1 <0>         0.0000
      5 C5          7.1860    0.1949    7.2019 C.2       1 <0>         0.0000
      6 C6          4.7876   -0.4376    7.0665 C.2       1 <0>         0.0000
      7 C7          1.6467   -0.6803    2.6385 C.ar      1 <0>         0.0000
      8 C8          5.3250   -0.1233    5.8377 C.2       1 <0>         0.0000
      9 C9          1.4304   -0.5475    1.2377 C.ar      1 <0>         0.0000
     10 C10         4.5520   -0.1640    4.6024 C.2       1 <0>         0.0000
     11 C11         2.9210   -0.4255    3.2909 C.2       1 <0>         0.0000
     12 N1          0.2484   -0.7890    0.6710 N.ar      1 <0>         0.0000
     13 N2          3.2154   -0.5187    4.5609 N.2       1 <0>         0.0000
     14 N3          5.0780    0.1368    3.4304 N.2       1 <0>         0.0000
     15 O1          3.9857   -0.0369    2.5419 O.3       1 <0>         0.0000
     16 O2          2.3882   -0.1699    0.3649 O.3       1 <0>         0.0000
     17 S1          5.9545   -0.2937    8.3276 S.3       1 <0>         0.0000
     18 H1         -1.5311   -1.6441    3.4208 H         1 <0>         0.0000
     19 H2          0.7080   -1.1877    4.5021 H         1 <0>         0.0000
     20 H3          7.3109    0.5221    5.0610 H         1 <0>         0.0000
     21 H4         -1.7097   -1.3535    0.9380 H         1 <0>         0.0000
     22 H5          8.1847    0.4177    7.5548 H         1 <0>         0.0000
     23 H6          3.7708   -0.7421    7.2753 H         1 <0>         0.0000
     24 H7          3.2317   -0.0057    0.8255 H         1 <0>         0.0000
@<TRIPOS>BOND
     1    1    2 ar
     2    1    4 ar
     3    1   18 1
     4    2    7 ar
     5    2   19 1
     6    3    5 2
     7    3    8 1
     8    3   20 1
     9    4   12 ar
    10    4   21 1
    11    5   17 1
    12    5   22 1
    13    6    8 2
    14    6   17 1
    15    6   23 1
    16    7    9 ar
    17    7   11 1
    18    8   10 1
    19    9   12 ar
    20    9   16 1
    21   10   13 1
    22   10   14 2
    23   11   13 2
    24   11   15 1
    25   14   15 1
    26   16   24 1
