@<TRIPOS>MOLECULE
*****
   25    26     0     0     0
SMALL
NO_CHARGES

@<TRIPOS>ATOM
      1 C1         -1.0357   -0.8330   -5.3449 C.ar      1 <0>         0.0000
      2 C2         -0.4028   -1.7262   -6.2139 C.ar      1 <0>         0.0000
      3 C3         -0.7384   -0.8316   -3.9805 C.ar      1 <0>         0.0000
      4 C4          0.5276   -2.6247   -5.7062 C.ar      1 <0>         0.0000
      5 C5          0.2009   -1.7454   -3.4899 C.ar      1 <0>         0.0000
      6 C6          0.8337   -2.6441   -4.3456 C.ar      1 <0>         0.0000
      7 C7          2.6389    1.7414   -2.6866 C.3       1 <0>         0.0000
      8 C8          2.0732    3.1245   -2.3281 C.3       1 <0>         0.0000
      9 C9          0.4299    1.4958   -2.3496 C.3       1 <0>         0.0000
     10 C10        -0.9057    1.3647   -3.0668 C.3       1 <0>         0.0000
     11 O1          1.4875    1.0483   -3.1762 O.3       1 <0>         0.0000
     12 O2          0.6781    2.8747   -2.0798 O.3       1 <0>         0.0000
     13 O3         -1.3794    0.0094   -3.0999 O.3       1 <0>         0.0000
     14 F1          1.1507   -3.5021   -6.5216 F         1 <0>         0.0000
     15 F2          0.5148   -1.7625   -2.1841 F         1 <0>         0.0000
     16 F3          1.7372   -3.5128   -3.8614 F         1 <0>         0.0000
     17 H1         -1.7759   -0.1324   -5.7187 H         1 <0>         0.0000
     18 H2         -0.6273   -1.7415   -7.2753 H         1 <0>         0.0000
     19 H3          3.3894    1.7588   -3.4784 H         1 <0>         0.0000
     20 H4          3.0454    1.2281   -1.8048 H         1 <0>         0.0000
     21 H5          2.5345    3.5516   -1.4323 H         1 <0>         0.0000
     22 H6          2.1607    3.8344   -3.1574 H         1 <0>         0.0000
     23 H7          0.4213    0.9262   -1.4069 H         1 <0>         0.0000
     24 H8         -0.8146    1.7778   -4.0775 H         1 <0>         0.0000
     25 H9         -1.6581    1.9256   -2.5100 H         1 <0>         0.0000
@<TRIPOS>BOND
     1    1    2 ar
     2    1    3 ar
     3    1   17 1
     4    2    4 ar
     5    2   18 1
     6    3    5 ar
     7    3   13 1
     8    4    6 ar
     9    4   14 1
    10    5    6 ar
    11    5   15 1
    12    6   16 1
    13    7    8 1
    14    7   11 1
    15    7   19 1
    16    7   20 1
    17    8   12 1
    18    8   21 1
    19    8   22 1
    20    9   10 1
    21    9   12 1
    22    9   11 1
    23    9   23 1
    24   10   13 1
    25   10   24 1
    26   10   25 1
