@<TRIPOS>MOLECULE
*****
   51    52     0     0     0
SMALL
NO_CHARGES

@<TRIPOS>ATOM
      1 C1          1.1963   -5.2432   11.8874 C.ar      1 <0>         0.0000
      2 C2          1.9852   -7.2849   10.1350 C.ar      1 <0>         0.0000
      3 C3          4.6375   -7.3935   12.5264 C.ar      1 <0>         0.0000
      4 C4          2.3895   -5.9590   12.1563 C.ar      1 <0>         0.0000
      5 C5          2.7872   -6.9930   11.2675 C.ar      1 <0>         0.0000
      6 C6          0.4226   -5.5333   10.7854 C.ar      1 <0>         0.0000
      7 C7          0.8271   -6.5711    9.8850 C.ar      1 <0>         0.0000
      8 C8          3.2578   -5.7274   13.2841 C.ar      1 <0>         0.0000
      9 C9          3.3479   -5.6326   16.4848 C.3       1 <0>         0.0000
     10 C10         3.5061   -3.1492   15.9513 C.3       1 <0>         0.0000
     11 C11        -1.9467   -5.4582   10.6894 C.3       1 <0>         0.0000
     12 C12        -2.2952   -9.7274    2.0532 C.3       1 <0>         0.0000
     13 C13        -0.6670   -7.7402    6.7493 C.3       1 <0>         0.0000
     14 C14        -0.3607   -8.7770    5.6609 C.3       1 <0>         0.0000
     15 C15         0.3837   -7.7553    7.8498 C.3       1 <0>         0.0000
     16 C16        -1.4074   -8.7457    4.5504 C.3       1 <0>         0.0000
     17 C17         3.7312   -4.5741   15.4422 C.3       1 <0>         0.0000
     18 N1          3.9345   -7.7204   11.4611 N.ar      1 <0>         0.0000
     19 N2          4.3680   -6.4472   13.4562 N.ar      1 <0>         0.0000
     20 N3          0.2804   -9.7474    2.5147 N.2       1 <0>         0.0000
     21 N4          2.9798   -4.7500   14.1934 N.pl3     1 <0>         0.0000
     22 O1         -1.2942  -11.3306    3.9827 O.2       1 <0>         0.0000
     23 O2         -0.6950   -4.7736   10.5266 O.3       1 <0>         0.0000
     24 O3          0.0100   -6.7625    8.8113 O.3       1 <0>         0.0000
     25 S1         -1.0293  -10.0385    3.2950 S.o       1 <0>         0.0000
     26 H1          0.8528   -4.4297   12.5201 H         1 <0>         0.0000
     27 H2          2.3316   -8.0750    9.4799 H         1 <0>         0.0000
     28 H3          5.5553   -7.9560   12.6960 H         1 <0>         0.0000
     29 H4          2.2918   -5.5391   16.7649 H         1 <0>         0.0000
     30 H5          3.5183   -6.6356   16.0862 H         1 <0>         0.0000
     31 H6          3.9518   -5.5152   17.3913 H         1 <0>         0.0000
     32 H7          2.4482   -2.9763   16.1887 H         1 <0>         0.0000
     33 H8          3.8170   -2.4113   15.2055 H         1 <0>         0.0000
     34 H9          4.0790   -2.9781   16.8674 H         1 <0>         0.0000
     35 H10        -2.7239   -4.7193   10.4845 H         1 <0>         0.0000
     36 H11        -2.0511   -5.8245   11.7186 H         1 <0>         0.0000
     37 H12        -2.0370   -6.2926    9.9881 H         1 <0>         0.0000
     38 H13        -2.1664  -10.4995    1.2936 H         1 <0>         0.0000
     39 H14        -3.2719   -9.8168    2.5310 H         1 <0>         0.0000
     40 H15        -2.1428   -8.7386    1.6207 H         1 <0>         0.0000
     41 H16        -0.7094   -6.7342    6.3170 H         1 <0>         0.0000
     42 H17        -1.6483   -7.9405    7.1944 H         1 <0>         0.0000
     43 H18        -0.3309   -9.7814    6.0970 H         1 <0>         0.0000
     44 H19         0.6274   -8.5768    5.2292 H         1 <0>         0.0000
     45 H20         0.4323   -8.7403    8.3322 H         1 <0>         0.0000
     46 H21         1.3772   -7.5212    7.4459 H         1 <0>         0.0000
     47 H22        -2.4081   -8.9631    4.9355 H         1 <0>         0.0000
     48 H23        -1.4110   -7.7856    4.0258 H         1 <0>         0.0000
     49 H24         4.7843   -4.7066   15.1849 H         1 <0>         0.0000
     50 H25         1.0946  -10.0394    3.0591 H         1 <0>         0.0000
     51 H26         2.0562   -4.3410   14.1657 H         1 <0>         0.0000
@<TRIPOS>BOND
     1    1    4 ar
     2    1    6 ar
     3    1   26 1
     4    2    5 ar
     5    2    7 ar
     6    2   27 1
     7    3   18 ar
     8    3   19 ar
     9    3   28 1
    10    4    5 ar
    11    4    8 ar
    12    5   18 ar
    13    6    7 ar
    14    6   23 1
    15    7   24 1
    16    8   19 ar
    17    8   21 1
    18    9   17 1
    19    9   29 1
    20    9   30 1
    21    9   31 1
    22   10   17 1
    23   10   32 1
    24   10   33 1
    25   10   34 1
    26   11   23 1
    27   11   35 1
    28   11   36 1
    29   11   37 1
    30   12   25 1
    31   12   38 1
    32   12   39 1
    33   12   40 1
    34   13   14 1
    35   13   15 1
    36   13   41 1
    37   13   42 1
    38   14   16 1
    39   14   43 1
    40   14   44 1
    41   15   24 1
    42   15   45 1
    43   15   46 1
    44   16   25 1
    45   16   47 1
    46   16   48 1
    47   17   21 1
    48   17   49 1
    49   20   25 2
    50   20   50 1
    51   21   51 1
    52   22   25 2
