@<TRIPOS>MOLECULE
*****
   67    70     0     0     0
SMALL
NO_CHARGES

@<TRIPOS>ATOM
      1 C1          2.6809    0.5890    1.2583 C.ar      1 <0>         0.0000
      2 C2          2.7428    2.9877    0.7307 C.ar      1 <0>         0.0000
      3 C3          0.7598    1.6293    0.3273 C.ar      1 <0>         0.0000
      4 C4          1.3737    0.4684    0.8014 C.ar      1 <0>         0.0000
      5 C5         -0.5537    1.7830   -0.1890 C.2       1 <0>         0.0000
      6 C6          3.3634    1.8388    1.2334 C.ar      1 <0>         0.0000
      7 C7          1.4226    2.8734    0.2713 C.ar      1 <0>         0.0000
      8 C8         -0.6895    3.1041   -0.5647 C.2       1 <0>         0.0000
      9 C9          0.9601   -5.3080   -1.4050 C.2       1 <0>         0.0000
     10 C10        -1.4792    0.6096   -0.1286 C.3       1 <0>         0.0000
     11 C11         1.4674   -2.0200    0.3093 C.3       1 <0>         0.0000
     12 C12        -0.7184   -3.1982    0.1016 C.3       1 <0>         0.0000
     13 C13         0.5660   -0.8231    0.7238 C.3       1 <0>         0.0000
     14 C14         0.6886   -3.0788   -0.4745 C.3       1 <0>         0.0000
     15 C15        -0.6223   -0.6680   -0.2682 C.3       1 <0>         0.0000
     16 C16         4.7785    1.9069    1.7619 C.3       1 <0>         0.0000
     17 C17        -4.9407   -2.8695    1.3427 C.3       1 <0>         0.0000
     18 C18         1.9629   -7.2353   -3.8994 C.3       1 <0>         0.0000
     19 C19         2.6760   -7.2769    0.6080 C.3       1 <0>         0.0000
     20 C20        -2.8016    4.7577    0.1429 C.3       1 <0>         0.0000
     21 C21        -3.6239   -3.1038    0.5904 C.3       1 <0>         0.0000
     22 C22         1.3208   -7.4337   -2.5254 C.3       1 <0>         0.0000
     23 C23         2.9551   -6.6732   -0.7727 C.3       1 <0>         0.0000
     24 C24        -2.7431   -1.8568    0.6656 C.3       1 <0>         0.0000
     25 N1          0.5165    3.7641   -0.2765 N.pl3     1 <0>         0.0000
     26 N2          1.3341   -4.3814   -0.4170 N.am      1 <0>         0.0000
     27 N3          1.7418   -6.4125   -1.5519 N.am      1 <0>         0.0000
     28 N4         -1.5130   -1.9450   -0.2167 N.4       1 <0>         0.0000
     29 O1         -0.0683   -5.1010   -2.0690 O.2       1 <0>         0.0000
     30 S1         -2.0495    3.9257   -1.3170 S.3       1 <0>         0.0000
     31 H1          3.2179   -0.2765    1.6403 H         1 <0>         0.0000
     32 H2          3.2798    3.9321    0.7012 H         1 <0>         0.0000
     33 H3         -1.9971    0.6145    0.8365 H         1 <0>         0.0000
     34 H4         -2.2400    0.6513   -0.9158 H         1 <0>         0.0000
     35 H5          2.3008   -1.6563   -0.2969 H         1 <0>         0.0000
     36 H6          1.8916   -2.4698    1.2132 H         1 <0>         0.0000
     37 H7         -1.2382   -4.0421   -0.3441 H         1 <0>         0.0000
     38 H8         -0.6894   -3.3060    1.1876 H         1 <0>         0.0000
     39 H9          0.1401   -1.0254    1.7162 H         1 <0>         0.0000
     40 H10         0.5959   -2.7776   -1.5254 H         1 <0>         0.0000
     41 H11        -0.2125   -0.6701   -1.2811 H         1 <0>         0.0000
     42 H12         5.4157    1.1512    1.2901 H         1 <0>         0.0000
     43 H13         5.2289    2.8855    1.5793 H         1 <0>         0.0000
     44 H14         4.8033    1.7251    2.8423 H         1 <0>         0.0000
     45 H15        -4.7611   -2.6397    2.3980 H         1 <0>         0.0000
     46 H16        -5.5107   -2.0428    0.9068 H         1 <0>         0.0000
     47 H17        -5.5650   -3.7652    1.2995 H         1 <0>         0.0000
     48 H18         1.6599   -6.2745   -4.3244 H         1 <0>         0.0000
     49 H19         3.0562   -7.2601   -3.8395 H         1 <0>         0.0000
     50 H20         1.6457   -8.0294   -4.5830 H         1 <0>         0.0000
     51 H21         2.0726   -6.6022    1.2223 H         1 <0>         0.0000
     52 H22         2.1317   -8.2210    0.5106 H         1 <0>         0.0000
     53 H23         3.6148   -7.4780    1.1340 H         1 <0>         0.0000
     54 H24        -3.6736    5.3003   -0.2297 H         1 <0>         0.0000
     55 H25        -2.1037    5.4667    0.5914 H         1 <0>         0.0000
     56 H26        -3.1196    4.0224    0.8842 H         1 <0>         0.0000
     57 H27        -3.8365   -3.3411   -0.4600 H         1 <0>         0.0000
     58 H28        -3.1106   -3.9695    1.0162 H         1 <0>         0.0000
     59 H29         1.5859   -8.4113   -2.1100 H         1 <0>         0.0000
     60 H30         0.2346   -7.3913   -2.6062 H         1 <0>         0.0000
     61 H31         3.5702   -7.3588   -1.3608 H         1 <0>         0.0000
     62 H32         3.5553   -5.7593   -0.6875 H         1 <0>         0.0000
     63 H33        -3.3128   -0.9903    0.3345 H         1 <0>         0.0000
     64 H34        -2.3898   -1.6717    1.6827 H         1 <0>         0.0000
     65 H35         0.7056    4.7196   -0.5504 H         1 <0>         0.0000
     66 H36         2.2939   -4.3799   -0.0982 H         1 <0>         0.0000
     67 H37        -1.8597   -2.0708   -1.1727 H         1 <0>         0.0000
@<TRIPOS>BOND
     1    1    4 ar
     2    1    6 ar
     3    1   31 1
     4    2    6 ar
     5    2    7 ar
     6    2   32 1
     7    3    4 ar
     8    3    5 1
     9    3    7 ar
    10    4   13 1
    11    5    8 2
    12    5   10 1
    13    6   16 1
    14    7   25 1
    15    8   25 1
    16    8   30 1
    17    9   26 am
    18    9   27 am
    19    9   29 2
    20   10   15 1
    21   10   33 1
    22   10   34 1
    23   11   13 1
    24   11   14 1
    25   11   35 1
    26   11   36 1
    27   12   14 1
    28   12   28 1
    29   12   37 1
    30   12   38 1
    31   13   15 1
    32   13   39 1
    33   14   26 1
    34   14   40 1
    35   15   28 1
    36   15   41 1
    37   16   42 1
    38   16   43 1
    39   16   44 1
    40   17   21 1
    41   17   45 1
    42   17   46 1
    43   17   47 1
    44   18   22 1
    45   18   48 1
    46   18   49 1
    47   18   50 1
    48   19   23 1
    49   19   51 1
    50   19   52 1
    51   19   53 1
    52   20   30 1
    53   20   54 1
    54   20   55 1
    55   20   56 1
    56   21   24 1
    57   21   57 1
    58   21   58 1
    59   22   27 1
    60   22   59 1
    61   22   60 1
    62   23   27 1
    63   23   61 1
    64   23   62 1
    65   24   28 1
    66   24   63 1
    67   24   64 1
    68   25   65 1
    69   26   66 1
    70   28   67 1
