@<TRIPOS>MOLECULE
*****
   31    31     0     0     0
SMALL
NO_CHARGES

@<TRIPOS>ATOM
      1 C1          3.7404   -1.1512   -1.3451 C.ar      1 <0>         0.0000
      2 C2          3.6033   -0.0536   -0.4917 C.ar      1 <0>         0.0000
      3 C3          2.6100   -1.9154   -1.6359 C.ar      1 <0>         0.0000
      4 C4          1.2779   -0.5971   -0.3169 C.ar      1 <0>         0.0000
      5 C5          2.3498    0.2347    0.0522 C.ar      1 <0>         0.0000
      6 C6          3.7211    3.3185    0.4896 C.2       1 <0>         0.0000
      7 C7          1.3893    1.1012    2.2767 C.2       1 <0>         0.0000
      8 C8          2.8005    3.8059   -0.6188 C.3       1 <0>         0.0000
      9 C9          0.7125    2.0125    4.4604 C.3       1 <0>         0.0000
     10 C10         4.2928    1.6752    2.1873 C.3       1 <0>         0.0000
     11 C11         2.1175    1.4451    0.9436 C.3       1 <0>         0.0000
     12 N1          1.3928   -1.6445   -1.1407 N.ar      1 <0>         0.0000
     13 N2          1.3163    2.1525    3.1406 N.am      1 <0>         0.0000
     14 N3          3.3268    2.2164    1.2211 N.am      1 <0>         0.0000
     15 O1          4.7868    3.8821    0.7359 O.2       1 <0>         0.0000
     16 O2          0.8736    0.0112    2.4980 O.2       1 <0>         0.0000
     17 H1          4.7026   -1.4037   -1.7814 H         1 <0>         0.0000
     18 H2          4.4629    0.5690   -0.2645 H         1 <0>         0.0000
     19 H3          2.6782   -2.7763   -2.2994 H         1 <0>         0.0000
     20 H4          0.2821   -0.4084    0.0751 H         1 <0>         0.0000
     21 H5          1.8507    4.1789   -0.2209 H         1 <0>         0.0000
     22 H6          3.3082    4.6243   -1.1284 H         1 <0>         0.0000
     23 H7          2.5774    3.0146   -1.3409 H         1 <0>         0.0000
     24 H8          0.4551    3.0032    4.8414 H         1 <0>         0.0000
     25 H9          1.3899    1.5188    5.1670 H         1 <0>         0.0000
     26 H10        -0.1937    1.4107    4.3769 H         1 <0>         0.0000
     27 H11         4.3560    2.3047    3.0802 H         1 <0>         0.0000
     28 H12         5.2888    1.6317    1.7420 H         1 <0>         0.0000
     29 H13         3.9812    0.6712    2.4787 H         1 <0>         0.0000
     30 H14         1.4178    2.1056    0.4253 H         1 <0>         0.0000
     31 H15         1.8920    2.9616    2.9467 H         1 <0>         0.0000
@<TRIPOS>BOND
     1    1    2 ar
     2    1    3 ar
     3    1   17 1
     4    2    5 ar
     5    2   18 1
     6    3   12 ar
     7    3   19 1
     8    4    5 ar
     9    4   12 ar
    10    4   20 1
    11    5   11 1
    12    6    8 1
    13    6   14 am
    14    6   15 2
    15    7   11 1
    16    7   13 am
    17    7   16 2
    18    8   21 1
    19    8   22 1
    20    8   23 1
    21    9   13 1
    22    9   24 1
    23    9   25 1
    24    9   26 1
    25   10   14 1
    26   10   27 1
    27   10   28 1
    28   10   29 1
    29   11   14 1
    30   11   30 1
    31   13   31 1
