@<TRIPOS>MOLECULE
*****
   31    31     0     0     0
SMALL
NO_CHARGES

@<TRIPOS>ATOM
      1 C1          2.8394   -3.0033   -1.0547 C.ar      1 <0>         0.0000
      2 C2          2.9384   -2.0105   -0.0809 C.ar      1 <0>         0.0000
      3 C3          2.6121   -2.6202   -2.3808 C.ar      1 <0>         0.0000
      4 C4          2.5871   -0.4033   -1.8187 C.ar      1 <0>         0.0000
      5 C5          2.8132   -0.6685   -0.4614 C.ar      1 <0>         0.0000
      6 C6          4.6271    2.2550    0.9335 C.2       1 <0>         0.0000
      7 C7          2.2685    0.1831    1.8949 C.2       1 <0>         0.0000
      8 C8          3.5027    3.2794    0.8650 C.3       1 <0>         0.0000
      9 C9          0.2043   -0.6250    2.9893 C.3       1 <0>         0.0000
     10 C10         5.3306   -0.0844    0.9382 C.3       1 <0>         0.0000
     11 C11         2.9348    0.4851    0.5222 C.3       1 <0>         0.0000
     12 N1          2.4836   -1.3433   -2.7666 N.ar      1 <0>         0.0000
     13 N2          0.9872   -0.2786    1.8092 N.am      1 <0>         0.0000
     14 N3          4.3106    0.9309    0.6797 N.am      1 <0>         0.0000
     15 O1          5.7770    2.6076    1.1867 O.2       1 <0>         0.0000
     16 O2          2.8366    0.4145    2.9569 O.2       1 <0>         0.0000
     17 H1          2.9360   -4.0541   -0.7970 H         1 <0>         0.0000
     18 H2          3.1121   -2.2741    0.9595 H         1 <0>         0.0000
     19 H3          2.5269   -3.3701   -3.1656 H         1 <0>         0.0000
     20 H4          2.4857    0.6283   -2.1572 H         1 <0>         0.0000
     21 H5          2.7139    3.0602    1.5906 H         1 <0>         0.0000
     22 H6          3.9383    4.2501    1.0996 H         1 <0>         0.0000
     23 H7          3.0537    3.3311   -0.1327 H         1 <0>         0.0000
     24 H8          0.3019   -1.6872    3.2445 H         1 <0>         0.0000
     25 H9         -0.8496   -0.3953    2.8116 H         1 <0>         0.0000
     26 H10         0.5670   -0.0322    3.8294 H         1 <0>         0.0000
     27 H11         5.0624   -0.6803    1.8173 H         1 <0>         0.0000
     28 H12         6.2691    0.4303    1.1334 H         1 <0>         0.0000
     29 H13         5.4516   -0.7408    0.0721 H         1 <0>         0.0000
     30 H14         2.3634    1.3126    0.0981 H         1 <0>         0.0000
     31 H15         0.6398   -0.5586    0.9008 H         1 <0>         0.0000
@<TRIPOS>BOND
     1    1    2 ar
     2    1    3 ar
     3    1   17 1
     4    2    5 ar
     5    2   18 1
     6    3   12 ar
     7    3   19 1
     8    4    5 ar
     9    4   12 ar
    10    4   20 1
    11    5   11 1
    12    6    8 1
    13    6   14 am
    14    6   15 2
    15    7   11 1
    16    7   13 am
    17    7   16 2
    18    8   21 1
    19    8   22 1
    20    8   23 1
    21    9   13 1
    22    9   24 1
    23    9   25 1
    24    9   26 1
    25   10   14 1
    26   10   27 1
    27   10   28 1
    28   10   29 1
    29   11   14 1
    30   11   30 1
    31   13   31 1
