@<TRIPOS>MOLECULE
*****
   31    31     0     0     0
SMALL
NO_CHARGES

@<TRIPOS>ATOM
      1 C1          1.7952   -2.2244   -0.6671 C.ar      1 <0>         0.0000
      2 C2          1.4965   -1.1363    0.1506 C.ar      1 <0>         0.0000
      3 C3          3.0780   -2.3251   -1.2145 C.ar      1 <0>         0.0000
      4 C4          3.7374   -0.3755   -0.2115 C.ar      1 <0>         0.0000
      5 C5          2.4931   -0.1821    0.4030 C.ar      1 <0>         0.0000
      6 C6          3.6849    3.0221    0.7098 C.2       1 <0>         0.0000
      7 C7          1.4956    0.7668    2.5890 C.2       1 <0>         0.0000
      8 C8          2.7090    3.4409   -0.3793 C.3       1 <0>         0.0000
      9 C9          0.8517    1.7620    4.7486 C.3       1 <0>         0.0000
     10 C10         4.4088    1.4316    2.3984 C.3       1 <0>         0.0000
     11 C11         2.2094    1.0608    1.2346 C.3       1 <0>         0.0000
     12 N1          4.0383   -1.4180   -1.0005 N.ar      1 <0>         0.0000
     13 N2          1.4542    1.8418    3.4237 N.am      1 <0>         0.0000
     14 N3          3.3816    1.9027    1.4587 N.am      1 <0>         0.0000
     15 O1          4.7172    3.6548    0.9271 O.2       1 <0>         0.0000
     16 O2          0.9554   -0.3049    2.8462 O.2       1 <0>         0.0000
     17 H1          1.0484   -2.9844   -0.8787 H         1 <0>         0.0000
     18 H2          0.5139   -1.0356    0.5966 H         1 <0>         0.0000
     19 H3          3.3428   -3.1648   -1.8558 H         1 <0>         0.0000
     20 H4          4.5375    0.3466   -0.0709 H         1 <0>         0.0000
     21 H5          1.7448    3.7512    0.0373 H         1 <0>         0.0000
     22 H6          3.1499    4.2888   -0.9027 H         1 <0>         0.0000
     23 H7          2.5265    2.6329   -1.0943 H         1 <0>         0.0000
     24 H8          0.5351    2.7601    5.0602 H         1 <0>         0.0000
     25 H9          1.5522    1.3588    5.4895 H         1 <0>         0.0000
     26 H10        -0.0170    1.1041    4.7028 H         1 <0>         0.0000
     27 H11         4.4946    2.1018    3.2591 H         1 <0>         0.0000
     28 H12         5.3837    1.3938    1.9082 H         1 <0>         0.0000
     29 H13         4.1411    0.4329    2.7459 H         1 <0>         0.0000
     30 H14         1.4772    1.6583    0.6855 H         1 <0>         0.0000
     31 H15         2.0383    2.6358    3.1959 H         1 <0>         0.0000
@<TRIPOS>BOND
     1    1    2 ar
     2    1    3 ar
     3    1   17 1
     4    2    5 ar
     5    2   18 1
     6    3   12 ar
     7    3   19 1
     8    4    5 ar
     9    4   12 ar
    10    4   20 1
    11    5   11 1
    12    6    8 1
    13    6   14 am
    14    6   15 2
    15    7   11 1
    16    7   13 am
    17    7   16 2
    18    8   21 1
    19    8   22 1
    20    8   23 1
    21    9   13 1
    22    9   24 1
    23    9   25 1
    24    9   26 1
    25   10   14 1
    26   10   27 1
    27   10   28 1
    28   10   29 1
    29   11   14 1
    30   11   30 1
    31   13   31 1
