@<TRIPOS>MOLECULE
*****
   28    29     0     0     0
SMALL
NO_CHARGES

@<TRIPOS>ATOM
      1 C1          3.9563   -0.3653   -1.8869 C.ar      1 <0>         0.0000
      2 C2          4.3645   -1.3934   -1.0231 C.ar      1 <0>         0.0000
      3 C3          2.6517    0.0902   -1.8241 C.ar      1 <0>         0.0000
      4 C4          1.8389   -0.5178   -0.8194 C.ar      1 <0>         0.0000
      5 C5         -0.8536    1.3603    0.6412 C.3       1 <0>         0.0000
      6 C6         -1.5235   -0.0141    0.5512 C.3       1 <0>         0.0000
      7 C7          0.1842    1.3091   -0.4903 C.3       1 <0>         0.0000
      8 C8         -0.3508   -0.9555    0.2539 C.3       1 <0>         0.0000
      9 C9          2.1141    1.0732   -2.8327 C.3       1 <0>         0.0000
     10 C10        -0.7567   -2.2648   -0.4162 C.3       1 <0>         0.0000
     11 N1          3.5345   -1.9851   -0.1672 N.ar      1 <0>         0.0000
     12 N2          2.2806   -1.5419   -0.0622 N.ar      1 <0>         0.0000
     13 N3          0.5220   -0.1280   -0.6194 N.pl3     1 <0>         0.0000
     14 H1          4.6463    0.0339   -2.6270 H         1 <0>         0.0000
     15 H2          5.3793   -1.7833   -1.0394 H         1 <0>         0.0000
     16 H3         -1.5484    2.1970    0.5259 H         1 <0>         0.0000
     17 H4         -0.3498    1.4681    1.6077 H         1 <0>         0.0000
     18 H5         -2.0519   -0.3009    1.4643 H         1 <0>         0.0000
     19 H6         -2.2417   -0.0358   -0.2777 H         1 <0>         0.0000
     20 H7         -0.2430    1.6965   -1.4229 H         1 <0>         0.0000
     21 H8          1.0739    1.9015   -0.2555 H         1 <0>         0.0000
     22 H9          0.1823   -1.1845    1.1850 H         1 <0>         0.0000
     23 H10         1.1358    0.7456   -3.1984 H         1 <0>         0.0000
     24 H11         1.9869    2.0777   -2.4179 H         1 <0>         0.0000
     25 H12         2.7944    1.1503   -3.6852 H         1 <0>         0.0000
     26 H13        -1.2569   -2.0673   -1.3706 H         1 <0>         0.0000
     27 H14        -1.4479   -2.8175    0.2300 H         1 <0>         0.0000
     28 H15         0.1164   -2.8955   -0.5963 H         1 <0>         0.0000
@<TRIPOS>BOND
     1    1    2 ar
     2    1    3 ar
     3    1   14 1
     4    2   11 ar
     5    2   15 1
     6    3    4 ar
     7    3    9 1
     8    4   12 ar
     9    4   13 1
    10    5    6 1
    11    5    7 1
    12    5   16 1
    13    5   17 1
    14    6    8 1
    15    6   18 1
    16    6   19 1
    17    7   13 1
    18    7   20 1
    19    7   21 1
    20    8   10 1
    21    8   13 1
    22    8   22 1
    23    9   23 1
    24    9   24 1
    25    9   25 1
    26   10   26 1
    27   10   27 1
    28   10   28 1
    29   11   12 ar
