@<TRIPOS>MOLECULE
*****
   29    30     0     0     0
SMALL
NO_CHARGES

@<TRIPOS>ATOM
      1 C1          1.7679   -1.2351   -0.2213 C.ar      1 <0>         0.0000
      2 C2          1.6167   -2.4140    0.5182 C.ar      1 <0>         0.0000
      3 C3          1.9116   -0.0146    0.4462 C.ar      1 <0>         0.0000
      4 C4          1.5859   -2.3753    1.9130 C.ar      1 <0>         0.0000
      5 C5          1.8999    0.0355    1.8423 C.ar      1 <0>         0.0000
      6 C6          1.3218   -0.5398    6.0992 C.2       1 <0>         0.0000
      7 C7          1.9880   -1.7848    5.9894 C.2       1 <0>         0.0000
      8 C8          1.7175   -1.1463    2.5703 C.ar      1 <0>         0.0000
      9 C9          1.1068   -0.1377    4.7929 C.2       1 <0>         0.0000
     10 C10         0.4116    1.0933    4.2962 C.2       1 <0>         0.0000
     11 C11        -1.3415    2.0473    2.8972 C.3       1 <0>         0.0000
     12 C12        -1.3501   -0.3891    3.3110 C.3       1 <0>         0.0000
     13 N1          2.1910   -2.1278    4.7180 N.2       1 <0>         0.0000
     14 N2          1.6514   -1.1118    3.9893 N.pl3     1 <0>         0.0000
     15 N3         -0.7217    0.9033    3.5536 N.am      1 <0>         0.0000
     16 O1          0.8692    2.2079    4.5624 O.2       1 <0>         0.0000
     17 H1          1.7848   -1.2693   -1.3072 H         1 <0>         0.0000
     18 H2          1.5154   -3.3680    0.0079 H         1 <0>         0.0000
     19 H3          2.0534    0.9033   -0.1180 H         1 <0>         0.0000
     20 H4          1.4664   -3.2786    2.5010 H         1 <0>         0.0000
     21 H5          2.0536    0.9784    2.3564 H         1 <0>         0.0000
     22 H6          1.0244   -0.0061    6.9911 H         1 <0>         0.0000
     23 H7          2.3377   -2.4382    6.7792 H         1 <0>         0.0000
     24 H8         -1.3846    1.8763    1.8145 H         1 <0>         0.0000
     25 H9         -0.7509    2.9379    3.1053 H         1 <0>         0.0000
     26 H10        -2.3621    2.1973    3.2692 H         1 <0>         0.0000
     27 H11        -2.4323   -0.2935    3.4526 H         1 <0>         0.0000
     28 H12        -0.9813   -1.1367    4.0117 H         1 <0>         0.0000
     29 H13        -1.1604   -0.7374    2.2884 H         1 <0>         0.0000
@<TRIPOS>BOND
     1    1    3 ar
     2    1    2 ar
     3    1   17 1
     4    2    4 ar
     5    2   18 1
     6    3    5 ar
     7    3   19 1
     8    4    8 ar
     9    4   20 1
    10    5    8 ar
    11    5   21 1
    12    6    7 1
    13    6    9 2
    14    6   22 1
    15    7   13 2
    16    7   23 1
    17    8   14 1
    18    9   10 1
    19    9   14 1
    20   10   15 am
    21   10   16 2
    22   11   15 1
    23   11   24 1
    24   11   25 1
    25   11   26 1
    26   12   15 1
    27   12   27 1
    28   12   28 1
    29   12   29 1
    30   13   14 1
