@<TRIPOS>MOLECULE
*****
   30    31     0     0     0
SMALL
NO_CHARGES

@<TRIPOS>ATOM
      1 C1         -1.8677    1.3908   -4.2013 C.ar      1 <0>         0.0000
      2 C2         -2.1435    0.5281   -3.1398 C.ar      1 <0>         0.0000
      3 C3         -0.5241    1.4713   -4.5863 C.ar      1 <0>         0.0000
      4 C4          0.0561   -0.0451   -2.9852 C.ar      1 <0>         0.0000
      5 C5          1.9835   -2.6036   -1.0610 C.3       1 <0>         0.0000
      6 C6          0.8689   -0.6604    0.0701 C.3       1 <0>         0.0000
      7 C7          1.8561   -3.3765    0.2532 C.3       1 <0>         0.0000
      8 C8          0.7801   -1.5091    1.3387 C.3       1 <0>         0.0000
      9 C9          0.8771   -1.5531   -1.1794 C.3       1 <0>         0.0000
     10 C10         1.8553   -3.2197    2.6587 C.3       1 <0>         0.0000
     11 N1         -1.2039   -0.1905   -2.5183 N.ar      1 <0>         0.0000
     12 N2          0.4438    0.7710   -3.9971 N.ar      1 <0>         0.0000
     13 N3          1.8793   -2.4752    1.4059 N.3       1 <0>         0.0000
     14 N4          1.0425   -0.7948   -2.4147 N.pl3     1 <0>         0.0000
     15 H1         -2.6436    1.9689   -4.6915 H         1 <0>         0.0000
     16 H2         -3.1600    0.4085   -2.7650 H         1 <0>         0.0000
     17 H3         -0.2130    2.1271   -5.3995 H         1 <0>         0.0000
     18 H4          2.9638   -2.1096   -1.0860 H         1 <0>         0.0000
     19 H5          1.9358   -3.2963   -1.9083 H         1 <0>         0.0000
     20 H6          0.0216    0.0302    0.0207 H         1 <0>         0.0000
     21 H7          1.7913   -0.0677    0.0954 H         1 <0>         0.0000
     22 H8          0.9240   -3.9782    0.2345 H         1 <0>         0.0000
     23 H9          2.6887   -4.0819    0.3483 H         1 <0>         0.0000
     24 H10         0.8325   -0.8643    2.2226 H         1 <0>         0.0000
     25 H11        -0.2035   -2.0215    1.3712 H         1 <0>         0.0000
     26 H12        -0.0901   -2.0602   -1.2461 H         1 <0>         0.0000
     27 H13         2.7149   -3.8964    2.7045 H         1 <0>         0.0000
     28 H14         0.9359   -3.8235    2.7859 H         1 <0>         0.0000
     29 H15         1.9250   -2.5259    3.5027 H         1 <0>         0.0000
     30 H16         1.9795   -0.5367   -2.6997 H         1 <0>         0.0000
@<TRIPOS>BOND
     1    1    3 ar
     2    1    2 ar
     3    1   15 1
     4    2   11 ar
     5    2   16 1
     6    3   12 ar
     7    3   17 1
     8    4   12 ar
     9    4   11 ar
    10    4   14 1
    11    5    7 1
    12    5    9 1
    13    5   18 1
    14    5   19 1
    15    6    8 1
    16    6    9 1
    17    6   20 1
    18    6   21 1
    19    7   13 1
    20    7   22 1
    21    7   23 1
    22    8   13 1
    23    8   24 1
    24    8   25 1
    25    9   14 1
    26    9   26 1
    27   10   13 1
    28   10   27 1
    29   10   28 1
    30   10   29 1
    31   14   30 1
