@<TRIPOS>MOLECULE
*****
   31    31     0     0     0
SMALL
NO_CHARGES

@<TRIPOS>ATOM
      1 C1          2.7857   -0.6349   -2.6690 C.ar      1 <0>         0.0000
      2 C2          2.6851    0.1112   -1.4944 C.ar      1 <0>         0.0000
      3 C3          3.1807   -1.9724   -2.5758 C.ar      1 <0>         0.0000
      4 C4          3.3470   -1.8532   -0.2933 C.ar      1 <0>         0.0000
      5 C5          2.9728   -0.5020   -0.2698 C.ar      1 <0>         0.0000
      6 C6          4.2776    2.3881    0.8127 C.2       1 <0>         0.0000
      7 C7          2.5181   -0.4244    2.2602 C.2       1 <0>         0.0000
      8 C8          5.6412    3.0582    0.8069 C.3       1 <0>         0.0000
      9 C9          2.5510   -0.3885    4.7283 C.3       1 <0>         0.0000
     10 C10         5.4432    0.2286    1.2526 C.3       1 <0>         0.0000
     11 C11         2.9565    0.3367    0.9941 C.3       1 <0>         0.0000
     12 N1          3.4593   -2.5795   -1.4135 N.ar      1 <0>         0.0000
     13 N2          3.0096    0.0801    3.4279 N.am      1 <0>         0.0000
     14 N3          4.2342    1.0524    1.1765 N.am      1 <0>         0.0000
     15 O1          3.2590    3.0183    0.5271 O.2       1 <0>         0.0000
     16 O2          1.7431   -1.3757    2.2038 O.2       1 <0>         0.0000
     17 H1          2.5630   -0.1941   -3.6367 H         1 <0>         0.0000
     18 H2          2.3907    1.1577   -1.5211 H         1 <0>         0.0000
     19 H3          3.2758   -2.5843   -3.4718 H         1 <0>         0.0000
     20 H4          3.5500   -2.3813    0.6350 H         1 <0>         0.0000
     21 H5          6.3203    2.5766    0.0964 H         1 <0>         0.0000
     22 H6          5.4986    4.0990    0.5177 H         1 <0>         0.0000
     23 H7          6.1135    3.0230    1.7939 H         1 <0>         0.0000
     24 H8          1.7286    0.2264    5.1133 H         1 <0>         0.0000
     25 H9          3.3785   -0.3680    5.4429 H         1 <0>         0.0000
     26 H10         2.1938   -1.4128    4.6172 H         1 <0>         0.0000
     27 H11         6.2408    0.7623    1.7697 H         1 <0>         0.0000
     28 H12         5.7983   -0.0760    0.2612 H         1 <0>         0.0000
     29 H13         5.2219   -0.6719    1.8281 H         1 <0>         0.0000
     30 H14         2.2096    1.1244    0.8664 H         1 <0>         0.0000
     31 H15         3.5570    0.9291    3.3693 H         1 <0>         0.0000
@<TRIPOS>BOND
     1    1    2 ar
     2    1    3 ar
     3    1   17 1
     4    2    5 ar
     5    2   18 1
     6    3   12 ar
     7    3   19 1
     8    4    5 ar
     9    4   12 ar
    10    4   20 1
    11    5   11 1
    12    6    8 1
    13    6   14 am
    14    6   15 2
    15    7   11 1
    16    7   13 am
    17    7   16 2
    18    8   21 1
    19    8   22 1
    20    8   23 1
    21    9   13 1
    22    9   24 1
    23    9   25 1
    24    9   26 1
    25   10   14 1
    26   10   27 1
    27   10   28 1
    28   10   29 1
    29   11   14 1
    30   11   30 1
    31   13   31 1
