@<TRIPOS>MOLECULE
*****
   31    33     0     0     0
SMALL
NO_CHARGES

@<TRIPOS>ATOM
      1 C1          2.1065    0.1553    0.1245 C.ar      1 <0>         0.0000
      2 C2          0.8246    0.7179    0.0320 C.ar      1 <0>         0.0000
      3 C3          8.5290    4.1829   -0.0972 C.ar      1 <0>         0.0000
      4 C4          9.0271    4.1102    1.2086 C.ar      1 <0>         0.0000
      5 C5          3.2204    0.9648   -0.0879 C.ar      1 <0>         0.0000
      6 C6          0.6693    2.0701   -0.2592 C.ar      1 <0>         0.0000
      7 C7          7.1740    3.9707   -0.3324 C.ar      1 <0>         0.0000
      8 C8          8.1172    3.8170    2.2274 C.ar      1 <0>         0.0000
      9 C9          3.0890    2.3300   -0.3851 C.ar      1 <0>         0.0000
     10 C10         1.7980    2.8800   -0.4609 C.ar      1 <0>         0.0000
     11 C11         6.3381    3.6796    0.7707 C.ar      1 <0>         0.0000
     12 C12         3.9101    4.4767   -1.3575 C.3       1 <0>         0.0000
     13 C13         2.6925    5.0764   -0.6729 C.3       1 <0>         0.0000
     14 C14         4.3173    3.1832   -0.6309 C.3       1 <0>         0.0000
     15 N1          6.8121    3.6028    2.0305 N.ar      1 <0>         0.0000
     16 N2          4.9792    3.4694    0.6440 N.pl3     1 <0>         0.0000
     17 O1          1.5575    4.1965   -0.7508 O.3       1 <0>         0.0000
     18 H1          2.2303   -0.8994    0.3527 H         1 <0>         0.0000
     19 H2         -0.0554    0.0998    0.1905 H         1 <0>         0.0000
     20 H3          9.1915    4.4062   -0.9301 H         1 <0>         0.0000
     21 H4         10.0769    4.2723    1.4313 H         1 <0>         0.0000
     22 H5          4.2208    0.5399   -0.0296 H         1 <0>         0.0000
     23 H6         -0.3142    2.5256   -0.3305 H         1 <0>         0.0000
     24 H7          6.7760    4.0324   -1.3390 H         1 <0>         0.0000
     25 H8          8.4542    3.7453    3.2612 H         1 <0>         0.0000
     26 H9          3.6726    4.2554   -2.4046 H         1 <0>         0.0000
     27 H10         4.7299    5.2002   -1.3392 H         1 <0>         0.0000
     28 H11         2.9152    5.2782    0.3828 H         1 <0>         0.0000
     29 H12         2.3687    6.0037   -1.1488 H         1 <0>         0.0000
     30 H13         5.0064    2.6135   -1.2683 H         1 <0>         0.0000
     31 H14         4.5583    3.0770    1.4778 H         1 <0>         0.0000
@<TRIPOS>BOND
     1    1    2 ar
     2    1    5 ar
     3    1   18 1
     4    2    6 ar
     5    2   19 1
     6    3    4 ar
     7    3    7 ar
     8    3   20 1
     9    4    8 ar
    10    4   21 1
    11    5    9 ar
    12    5   22 1
    13    6   10 ar
    14    6   23 1
    15    7   11 ar
    16    7   24 1
    17    8   15 ar
    18    8   25 1
    19    9   10 ar
    20    9   14 1
    21   10   17 1
    22   11   15 ar
    23   11   16 1
    24   12   13 1
    25   12   14 1
    26   12   26 1
    27   12   27 1
    28   13   17 1
    29   13   28 1
    30   13   29 1
    31   14   16 1
    32   14   30 1
    33   16   31 1
