@<TRIPOS>MOLECULE
*****
   31    31     0     0     0
SMALL
NO_CHARGES

@<TRIPOS>ATOM
      1 C1          1.2258   -0.8398   -2.6096 C.ar      1 <0>         0.0000
      2 C2          1.3397    0.1381   -1.6231 C.ar      1 <0>         0.0000
      3 C3          2.2361   -1.8019   -2.7112 C.ar      1 <0>         0.0000
      4 C4          3.3997   -0.8848   -0.9599 C.ar      1 <0>         0.0000
      5 C5          2.4487    0.1269   -0.7664 C.ar      1 <0>         0.0000
      6 C6          4.4094    0.6155    1.7930 C.2       1 <0>         0.0000
      7 C7          1.6054    1.0641    1.5225 C.2       1 <0>         0.0000
      8 C8          5.7338    0.9816    2.4366 C.3       1 <0>         0.0000
      9 C9          0.0260   -0.3091    2.7685 C.3       1 <0>         0.0000
     10 C10         4.5613    2.6762    0.3832 C.3       1 <0>         0.0000
     11 C11         2.5690    1.1932    0.3072 C.3       1 <0>         0.0000
     12 N1          3.3066   -1.8303   -1.9072 N.ar      1 <0>         0.0000
     13 N2          0.8130   -0.0402    1.5694 N.am      1 <0>         0.0000
     14 N3          3.9351    1.4215    0.7888 N.am      1 <0>         0.0000
     15 O1          3.7804   -0.3865    2.1461 O.2       1 <0>         0.0000
     16 O2          1.5414    1.9937    2.3232 O.2       1 <0>         0.0000
     17 H1          0.3791   -0.8574   -3.2900 H         1 <0>         0.0000
     18 H2          0.5723    0.9017   -1.5128 H         1 <0>         0.0000
     19 H3          2.1838   -2.5803   -3.4711 H         1 <0>         0.0000
     20 H4          4.2725   -0.9418   -0.3179 H         1 <0>         0.0000
     21 H5          5.7048    1.9862    2.8694 H         1 <0>         0.0000
     22 H6          5.9273    0.2559    3.2261 H         1 <0>         0.0000
     23 H7          6.5562    0.9467    1.7145 H         1 <0>         0.0000
     24 H8          0.6658   -0.6054    3.6082 H         1 <0>         0.0000
     25 H9         -0.6881   -1.1074    2.5531 H         1 <0>         0.0000
     26 H10        -0.5169    0.5943    3.0493 H         1 <0>         0.0000
     27 H11         4.4303    2.8135   -0.6942 H         1 <0>         0.0000
     28 H12         5.6318    2.6559    0.5820 H         1 <0>         0.0000
     29 H13         4.1158    3.5306    0.9078 H         1 <0>         0.0000
     30 H14         2.2524    2.1384   -0.1431 H         1 <0>         0.0000
     31 H15         1.1654   -0.8454    1.0658 H         1 <0>         0.0000
@<TRIPOS>BOND
     1    1    2 ar
     2    1    3 ar
     3    1   17 1
     4    2    5 ar
     5    2   18 1
     6    3   12 ar
     7    3   19 1
     8    4    5 ar
     9    4   12 ar
    10    4   20 1
    11    5   11 1
    12    6    8 1
    13    6   14 am
    14    6   15 2
    15    7   11 1
    16    7   13 am
    17    7   16 2
    18    8   21 1
    19    8   22 1
    20    8   23 1
    21    9   13 1
    22    9   24 1
    23    9   25 1
    24    9   26 1
    25   10   14 1
    26   10   27 1
    27   10   28 1
    28   10   29 1
    29   11   14 1
    30   11   30 1
    31   13   31 1
