@<TRIPOS>MOLECULE
*****
   26    25     0     0     0
SMALL
NO_CHARGES

@<TRIPOS>ATOM
      1 C1         -2.7403   -0.2809    1.3523 C.2       1 <0>         0.0000
      2 C2          0.0894    1.0346   -0.5744 C.2       1 <0>         0.0000
      3 C3         -2.9239   -0.3594    2.8578 C.3       1 <0>         0.0000
      4 C4         -2.2891    1.6553   -1.1899 C.3       1 <0>         0.0000
      5 C5          0.3069    0.0350   -2.8922 C.3       1 <0>         0.0000
      6 C6          2.3159    2.5918   -1.9931 C.3       1 <0>         0.0000
      7 C7         -1.3879    0.6196   -0.4899 C.3       1 <0>         0.0000
      8 N1         -1.7097    0.5007    0.9206 N.am      1 <0>         0.0000
      9 N2          0.6835    0.9338   -1.8095 N.am      1 <0>         0.0000
     10 O1         -3.4831   -0.8807    0.5708 O.2       1 <0>         0.0000
     11 O2          0.6644    1.5293    0.3942 O.2       1 <0>         0.0000
     12 O3          2.0660    1.1848   -1.8361 O.3       1 <0>         0.0000
     13 H1         -3.9130    0.0316    3.1120 H         1 <0>         0.0000
     14 H2         -2.8991   -1.4100    3.1588 H         1 <0>         0.0000
     15 H3         -2.1663    0.1938    3.4195 H         1 <0>         0.0000
     16 H4         -2.1433    2.6422   -0.7408 H         1 <0>         0.0000
     17 H5         -3.3322    1.3567   -1.0657 H         1 <0>         0.0000
     18 H6         -2.0687    1.7263   -2.2593 H         1 <0>         0.0000
     19 H7          0.6147    0.4842   -3.8392 H         1 <0>         0.0000
     20 H8         -0.7728   -0.1027   -2.9108 H         1 <0>         0.0000
     21 H9          0.7974   -0.9390   -2.7815 H         1 <0>         0.0000
     22 H10         3.4012    2.6762   -2.0774 H         1 <0>         0.0000
     23 H11         1.9642    3.1431   -1.1174 H         1 <0>         0.0000
     24 H12         1.8391    2.9704   -2.9049 H         1 <0>         0.0000
     25 H13        -1.5498   -0.3615   -0.9439 H         1 <0>         0.0000
     26 H14        -1.0570    0.9367    1.5632 H         1 <0>         0.0000
@<TRIPOS>BOND
     1    1    3 1
     2    1    8 am
     3    1   10 2
     4    2    7 1
     5    2    9 am
     6    2   11 2
     7    3   13 1
     8    3   14 1
     9    3   15 1
    10    4    7 1
    11    4   16 1
    12    4   17 1
    13    4   18 1
    14    5    9 1
    15    5   19 1
    16    5   20 1
    17    5   21 1
    18    6   12 1
    19    6   22 1
    20    6   23 1
    21    6   24 1
    22    7    8 1
    23    7   25 1
    24    8   26 1
    25    9   12 1
