@<TRIPOS>MOLECULE
*****
   29    30     0     0     0
SMALL
NO_CHARGES

@<TRIPOS>ATOM
      1 C1          1.6767   -1.4027   -0.2866 C.ar      1 <0>         0.0000
      2 C2          2.8547   -1.6097    0.4397 C.ar      1 <0>         0.0000
      3 C3          0.4628   -1.2574    0.3920 C.ar      1 <0>         0.0000
      4 C4          2.8268   -1.6590    1.8342 C.ar      1 <0>         0.0000
      5 C5          0.4225   -1.3190    1.7860 C.ar      1 <0>         0.0000
      6 C6          1.1210   -1.3358    6.0718 C.2       1 <0>         0.0000
      7 C7          2.1334   -2.2995    5.8596 C.2       1 <0>         0.0000
      8 C8          1.6079   -1.5071    2.5026 C.ar      1 <0>         0.0000
      9 C9          0.7929   -0.8776    4.8031 C.2       1 <0>         0.0000
     10 C10        -0.0267    0.3111    4.4070 C.2       1 <0>         0.0000
     11 C11        -2.1088    1.5557    4.6292 C.3       1 <0>         0.0000
     12 C12        -2.0399   -0.7744    5.4457 C.3       1 <0>         0.0000
     13 N1          2.4066   -2.4460    4.5632 N.2       1 <0>         0.0000
     14 N2          1.5895   -1.5684    3.9247 N.pl3     1 <0>         0.0000
     15 N3         -1.3227    0.3482    4.8549 N.am      1 <0>         0.0000
     16 O1          0.4833    1.2202    3.7502 O.2       1 <0>         0.0000
     17 H1          1.7042   -1.3586   -1.3719 H         1 <0>         0.0000
     18 H2          3.8020   -1.7255   -0.0800 H         1 <0>         0.0000
     19 H3         -0.4589   -1.1064   -0.1633 H         1 <0>         0.0000
     20 H4          3.7311   -1.8153    2.4116 H         1 <0>         0.0000
     21 H5         -0.5251   -1.2301    2.3075 H         1 <0>         0.0000
     22 H6          0.7109   -0.9873    7.0101 H         1 <0>         0.0000
     23 H7          2.6680   -2.8954    6.5889 H         1 <0>         0.0000
     24 H8         -2.8775    1.3825    3.8650 H         1 <0>         0.0000
     25 H9         -1.4482    2.3527    4.2919 H         1 <0>         0.0000
     26 H10        -2.6045    1.8534    5.5603 H         1 <0>         0.0000
     27 H11        -2.2775   -0.5811    6.4996 H         1 <0>         0.0000
     28 H12        -1.4496   -1.6866    5.3832 H         1 <0>         0.0000
     29 H13        -2.9825   -0.9308    4.9070 H         1 <0>         0.0000
@<TRIPOS>BOND
     1    1    3 ar
     2    1    2 ar
     3    1   17 1
     4    2    4 ar
     5    2   18 1
     6    3    5 ar
     7    3   19 1
     8    4    8 ar
     9    4   20 1
    10    5    8 ar
    11    5   21 1
    12    6    7 1
    13    6    9 2
    14    6   22 1
    15    7   13 2
    16    7   23 1
    17    8   14 1
    18    9   10 1
    19    9   14 1
    20   10   15 am
    21   10   16 2
    22   11   15 1
    23   11   24 1
    24   11   25 1
    25   11   26 1
    26   12   15 1
    27   12   27 1
    28   12   28 1
    29   12   29 1
    30   13   14 1
