@<TRIPOS>MOLECULE
*****
   31    31     0     0     0
SMALL
NO_CHARGES

@<TRIPOS>ATOM
      1 C1          3.2118   -2.4728   -1.6038 C.ar      1 <0>         0.0000
      2 C2          3.4074   -1.5516   -0.5738 C.ar      1 <0>         0.0000
      3 C3          2.2628   -2.1927   -2.5919 C.ar      1 <0>         0.0000
      4 C4          1.7260   -0.1980   -1.6123 C.ar      1 <0>         0.0000
      5 C5          2.6445   -0.3756   -0.5663 C.ar      1 <0>         0.0000
      6 C6          4.6777    0.2445    1.9323 C.2       1 <0>         0.0000
      7 C7          1.8475    0.5037    1.7630 C.2       1 <0>         0.0000
      8 C8          5.9895    0.7174    2.5308 C.3       1 <0>         0.0000
      9 C9          0.2385   -0.8901    2.9584 C.3       1 <0>         0.0000
     10 C10         4.6541    2.2784    0.4831 C.3       1 <0>         0.0000
     11 C11         2.7473    0.6883    0.5082 C.3       1 <0>         0.0000
     12 N1          1.5259   -1.0732   -2.6058 N.ar      1 <0>         0.0000
     13 N2          1.0204   -0.5737    1.7688 N.am      1 <0>         0.0000
     14 N3          4.1209    0.9944    0.9284 N.am      1 <0>         0.0000
     15 O1          4.1329   -0.7920    2.3271 O.2       1 <0>         0.0000
     16 O2          1.8453    1.3783    2.6257 O.2       1 <0>         0.0000
     17 H1          3.7831   -3.3962   -1.6418 H         1 <0>         0.0000
     18 H2          4.1198   -1.7435    0.2203 H         1 <0>         0.0000
     19 H3          2.0882   -2.8936   -3.4069 H         1 <0>         0.0000
     20 H4          1.1152    0.7049   -1.6463 H         1 <0>         0.0000
     21 H5          5.8987    1.7267    2.9435 H         1 <0>         0.0000
     22 H6          6.2547    0.0256    3.3299 H         1 <0>         0.0000
     23 H7          6.7935    0.7256    1.7877 H         1 <0>         0.0000
     24 H8          0.8716   -1.2901    3.7590 H         1 <0>         0.0000
     25 H9         -0.5275   -1.6236    2.6963 H         1 <0>         0.0000
     26 H10        -0.2423    0.0196    3.3209 H         1 <0>         0.0000
     27 H11         4.4598    2.3973   -0.5869 H         1 <0>         0.0000
     28 H12         5.7328    2.3209    0.6257 H         1 <0>         0.0000
     29 H13         4.1882    3.1118    1.0239 H         1 <0>         0.0000
     30 H14         2.3578    1.6146    0.0758 H         1 <0>         0.0000
     31 H15         1.2699   -1.3380    1.1544 H         1 <0>         0.0000
@<TRIPOS>BOND
     1    1    2 ar
     2    1    3 ar
     3    1   17 1
     4    2    5 ar
     5    2   18 1
     6    3   12 ar
     7    3   19 1
     8    4    5 ar
     9    4   12 ar
    10    4   20 1
    11    5   11 1
    12    6    8 1
    13    6   14 am
    14    6   15 2
    15    7   11 1
    16    7   13 am
    17    7   16 2
    18    8   21 1
    19    8   22 1
    20    8   23 1
    21    9   13 1
    22    9   24 1
    23    9   25 1
    24    9   26 1
    25   10   14 1
    26   10   27 1
    27   10   28 1
    28   10   29 1
    29   11   14 1
    30   11   30 1
    31   13   31 1
