@<TRIPOS>MOLECULE
*****
   31    31     0     0     0
SMALL
NO_CHARGES

@<TRIPOS>ATOM
      1 C1          2.9493   -2.3564   -1.3369 C.ar      1 <0>         0.0000
      2 C2          2.9610   -1.6918   -0.1097 C.ar      1 <0>         0.0000
      3 C3          2.7684   -1.6112   -2.5051 C.ar      1 <0>         0.0000
      4 C4          2.6090    0.3418   -1.3255 C.ar      1 <0>         0.0000
      5 C5          2.7921   -0.3039   -0.0932 C.ar      1 <0>         0.0000
      6 C6          4.2978    2.5459    0.9905 C.2       1 <0>         0.0000
      7 C7          2.4587   -0.1604    2.4546 C.2       1 <0>         0.0000
      8 C8          5.6942    3.1360    0.8894 C.3       1 <0>         0.0000
      9 C9          2.6168   -0.1057    4.9128 C.3       1 <0>         0.0000
     10 C10         5.3643    0.3003    1.2359 C.3       1 <0>         0.0000
     11 C11         2.8793    0.5548    1.1561 C.3       1 <0>         0.0000
     12 N1          2.5980   -0.2812   -2.5109 N.ar      1 <0>         0.0000
     13 N2          3.0496    0.3149    3.5870 N.am      1 <0>         0.0000
     14 N3          4.2044    1.1922    1.2677 N.am      1 <0>         0.0000
     15 O1          3.2979    3.2504    0.8527 O.2       1 <0>         0.0000
     16 O2          1.6199   -1.0592    2.4575 O.2       1 <0>         0.0000
     17 H1          3.0704   -3.4349   -1.3898 H         1 <0>         0.0000
     18 H2          3.0746   -2.2456    0.8161 H         1 <0>         0.0000
     19 H3          2.7546   -2.1017   -3.4774 H         1 <0>         0.0000
     20 H4          2.4649    1.4219   -1.3504 H         1 <0>         0.0000
     21 H5          6.2819    2.6453    0.1074 H         1 <0>         0.0000
     22 H6          5.5904    4.1940    0.6511 H         1 <0>         0.0000
     23 H7          6.2436    3.0358    1.8312 H         1 <0>         0.0000
     24 H8          1.7743    0.4958    5.2748 H         1 <0>         0.0000
     25 H9          3.4501   -0.0150    5.6142 H         1 <0>         0.0000
     26 H10         2.2976   -1.1473    4.8617 H         1 <0>         0.0000
     27 H11         6.2260    0.7714    1.7089 H         1 <0>         0.0000
     28 H12         5.6311    0.0058    0.2142 H         1 <0>         0.0000
     29 H13         5.1305   -0.6032    1.8028 H         1 <0>         0.0000
     30 H14         2.1758    1.3853    1.0488 H         1 <0>         0.0000
     31 H15         3.6371    1.1333    3.4923 H         1 <0>         0.0000
@<TRIPOS>BOND
     1    1    2 ar
     2    1    3 ar
     3    1   17 1
     4    2    5 ar
     5    2   18 1
     6    3   12 ar
     7    3   19 1
     8    4    5 ar
     9    4   12 ar
    10    4   20 1
    11    5   11 1
    12    6    8 1
    13    6   14 am
    14    6   15 2
    15    7   11 1
    16    7   13 am
    17    7   16 2
    18    8   21 1
    19    8   22 1
    20    8   23 1
    21    9   13 1
    22    9   24 1
    23    9   25 1
    24    9   26 1
    25   10   14 1
    26   10   27 1
    27   10   28 1
    28   10   29 1
    29   11   14 1
    30   11   30 1
    31   13   31 1
