@<TRIPOS>MOLECULE
*****
   31    33     0     0     0
SMALL
NO_CHARGES

@<TRIPOS>ATOM
      1 C1          2.0488   -1.1633   -0.1798 C.ar      1 <0>         0.0000
      2 C2          0.6707   -0.9976    0.0145 C.ar      1 <0>         0.0000
      3 C3          2.3874   -5.9143   -2.6594 C.ar      1 <0>         0.0000
      4 C4          3.4400   -6.7356   -3.0819 C.ar      1 <0>         0.0000
      5 C5          2.6790   -2.3022    0.3190 C.ar      1 <0>         0.0000
      6 C6         -0.0581   -1.9609    0.7087 C.ar      1 <0>         0.0000
      7 C7          2.4366   -5.3157   -1.4050 C.ar      1 <0>         0.0000
      8 C8          4.5072   -6.9150   -2.2007 C.ar      1 <0>         0.0000
      9 C9          1.9648   -3.2874    1.0143 C.ar      1 <0>         0.0000
     10 C10         0.5860   -3.0995    1.2123 C.ar      1 <0>         0.0000
     11 C11         3.5618   -5.5665   -0.5879 C.ar      1 <0>         0.0000
     12 C12         1.6241   -5.6234    1.8734 C.3       1 <0>         0.0000
     13 C13         0.4723   -4.9980    2.6461 C.3       1 <0>         0.0000
     14 C14         2.6617   -4.5386    1.5375 C.3       1 <0>         0.0000
     15 N1          4.5761   -6.3588   -0.9852 N.ar      1 <0>         0.0000
     16 N2          3.7421   -4.9926    0.6643 N.pl3     1 <0>         0.0000
     17 O1         -0.2127   -4.0077    1.8652 O.3       1 <0>         0.0000
     18 H1          2.6212   -0.4167   -0.7230 H         1 <0>         0.0000
     19 H2          0.1639   -0.1180   -0.3739 H         1 <0>         0.0000
     20 H3          1.5319   -5.7345   -3.3059 H         1 <0>         0.0000
     21 H4          3.4362   -7.2176   -4.0546 H         1 <0>         0.0000
     22 H5          3.7394   -2.4640    0.1470 H         1 <0>         0.0000
     23 H6         -1.1264   -1.8546    0.8744 H         1 <0>         0.0000
     24 H7          1.6422   -4.6581   -1.0750 H         1 <0>         0.0000
     25 H8          5.3528   -7.5430   -2.4792 H         1 <0>         0.0000
     26 H9          2.0892   -6.4157    2.4696 H         1 <0>         0.0000
     27 H10         1.2397   -6.0803    0.9568 H         1 <0>         0.0000
     28 H11        -0.2885   -5.7362    2.9079 H         1 <0>         0.0000
     29 H12         0.8332   -4.5287    3.5728 H         1 <0>         0.0000
     30 H13         3.1626   -4.2626    2.4736 H         1 <0>         0.0000
     31 H14         4.5314   -5.4150    1.1399 H         1 <0>         0.0000
@<TRIPOS>BOND
     1    1    2 ar
     2    1    5 ar
     3    1   18 1
     4    2    6 ar
     5    2   19 1
     6    3    4 ar
     7    3    7 ar
     8    3   20 1
     9    4    8 ar
    10    4   21 1
    11    5    9 ar
    12    5   22 1
    13    6   10 ar
    14    6   23 1
    15    7   11 ar
    16    7   24 1
    17    8   15 ar
    18    8   25 1
    19    9   10 ar
    20    9   14 1
    21   10   17 1
    22   11   15 ar
    23   11   16 1
    24   12   13 1
    25   12   14 1
    26   12   26 1
    27   12   27 1
    28   13   17 1
    29   13   28 1
    30   13   29 1
    31   14   16 1
    32   14   30 1
    33   16   31 1
