@<TRIPOS>MOLECULE
*****
   26    26     0     0     0
SMALL
NO_CHARGES

@<TRIPOS>ATOM
      1 C1          1.5003   -1.2652    0.0487 C.ar      1 <0>         0.0000
      2 C2          1.8354   -0.0643    0.6852 C.ar      1 <0>         0.0000
      3 C3          1.3415   -2.4271    0.8107 C.ar      1 <0>         0.0000
      4 C4          1.9989   -0.0316    2.0730 C.ar      1 <0>         0.0000
      5 C5          1.5069   -2.3904    2.1996 C.ar      1 <0>         0.0000
      6 C6          1.8305   -1.1914    2.8435 C.ar      1 <0>         0.0000
      7 C7         -1.1386   -1.9696    4.4644 C.2       1 <0>         0.0000
      8 C8         -2.4452   -2.1987    3.7324 C.3       1 <0>         0.0000
      9 C9          0.7013   -0.3690    4.9404 C.3       1 <0>         0.0000
     10 C10         1.9311   -1.1168    4.3614 C.3       1 <0>         0.0000
     11 N1         -0.5868   -0.7328    4.3461 N.am      1 <0>         0.0000
     12 O1         -0.6120   -2.8705    5.1330 O.2       1 <0>         0.0000
     13 O2          2.1261   -2.3753    4.9814 O.3       1 <0>         0.0000
     14 H1          1.3758   -1.2957   -1.0307 H         1 <0>         0.0000
     15 H2          1.9770    0.8416    0.1008 H         1 <0>         0.0000
     16 H3          1.0941   -3.3666    0.3223 H         1 <0>         0.0000
     17 H4          2.2712    0.9049    2.5583 H         1 <0>         0.0000
     18 H5          1.3998   -3.2943    2.7910 H         1 <0>         0.0000
     19 H6         -2.2772   -2.9433    2.9492 H         1 <0>         0.0000
     20 H7         -3.1711   -2.6150    4.4350 H         1 <0>         0.0000
     21 H8         -2.8580   -1.2931    3.2806 H         1 <0>         0.0000
     22 H9          0.8208    0.7059    4.7870 H         1 <0>         0.0000
     23 H10         0.6626   -0.5542    6.0181 H         1 <0>         0.0000
     24 H11         2.8111   -0.5160    4.6228 H         1 <0>         0.0000
     25 H12        -0.9722   -0.1124    3.6476 H         1 <0>         0.0000
     26 H13         1.2408   -2.7560    5.1649 H         1 <0>         0.0000
@<TRIPOS>BOND
     1    1    3 ar
     2    1    2 ar
     3    1   14 1
     4    2    4 ar
     5    2   15 1
     6    3    5 ar
     7    3   16 1
     8    4    6 ar
     9    4   17 1
    10    5    6 ar
    11    5   18 1
    12    6   10 1
    13    7    8 1
    14    7   11 am
    15    7   12 2
    16    8   19 1
    17    8   20 1
    18    8   21 1
    19    9   10 1
    20    9   11 1
    21    9   22 1
    22    9   23 1
    23   10   13 1
    24   10   24 1
    25   11   25 1
    26   13   26 1
