@<TRIPOS>MOLECULE
*****
   29    30     0     0     0
SMALL
NO_CHARGES

@<TRIPOS>ATOM
      1 C1          2.2060   -1.0080   -0.2071 C.ar      1 <0>         0.0000
      2 C2          2.0741   -2.2296    0.4624 C.ar      1 <0>         0.0000
      3 C3          2.2948    0.1776    0.5288 C.ar      1 <0>         0.0000
      4 C4          2.0179   -2.2700    1.8563 C.ar      1 <0>         0.0000
      5 C5          2.2534    0.1463    1.9238 C.ar      1 <0>         0.0000
      6 C6          1.7637   -0.7076    6.1532 C.2       1 <0>         0.0000
      7 C7          2.4826   -1.9078    5.9494 C.2       1 <0>         0.0000
      8 C8          2.1022   -1.0777    2.5819 C.ar      1 <0>         0.0000
      9 C9          1.4961   -0.2310    4.8771 C.2       1 <0>         0.0000
     10 C10         0.5644    0.8598    4.4485 C.2       1 <0>         0.0000
     11 C11        -0.1808    3.1641    4.7030 C.3       1 <0>         0.0000
     12 C12         2.0030    2.5232    5.6621 C.3       1 <0>         0.0000
     13 N1          2.6653   -2.1556    4.6525 N.2       1 <0>         0.0000
     14 N2          2.0530   -1.1311    4.0036 N.pl3     1 <0>         0.0000
     15 N3          0.7894    2.1083    4.9700 N.am      1 <0>         0.0000
     16 O1         -0.3820    0.6046    3.7021 O.2       1 <0>         0.0000
     17 H1          2.2428   -0.9808   -1.2927 H         1 <0>         0.0000
     18 H2          2.0063   -3.1557   -0.1021 H         1 <0>         0.0000
     19 H3          2.4076    1.1303    0.0185 H         1 <0>         0.0000
     20 H4          1.9123   -3.2080    2.3900 H         1 <0>         0.0000
     21 H5          2.3471    1.0662    2.4919 H         1 <0>         0.0000
     22 H6          1.4450   -0.2653    7.0874 H         1 <0>         0.0000
     23 H7          2.8794   -2.5956    6.6858 H         1 <0>         0.0000
     24 H8         -0.4080    3.6987    5.6322 H         1 <0>         0.0000
     25 H9         -1.0897    2.7196    4.3010 H         1 <0>         0.0000
     26 H10         0.2154    3.8834    3.9745 H         1 <0>         0.0000
     27 H11         2.4202    3.4113    5.1715 H         1 <0>         0.0000
     28 H12         2.7501    1.7322    5.6405 H         1 <0>         0.0000
     29 H13         1.7921    2.7789    6.7083 H         1 <0>         0.0000
@<TRIPOS>BOND
     1    1    3 ar
     2    1    2 ar
     3    1   17 1
     4    2    4 ar
     5    2   18 1
     6    3    5 ar
     7    3   19 1
     8    4    8 ar
     9    4   20 1
    10    5    8 ar
    11    5   21 1
    12    6    7 1
    13    6    9 2
    14    6   22 1
    15    7   13 2
    16    7   23 1
    17    8   14 1
    18    9   10 1
    19    9   14 1
    20   10   15 am
    21   10   16 2
    22   11   15 1
    23   11   24 1
    24   11   25 1
    25   11   26 1
    26   12   15 1
    27   12   27 1
    28   12   28 1
    29   12   29 1
    30   13   14 1
