@<TRIPOS>MOLECULE
*****
   26    26     0     0     0
SMALL
NO_CHARGES

@<TRIPOS>ATOM
      1 C1          1.9246   -1.1207    0.0356 C.ar      1 <0>         0.0000
      2 C2          1.2544   -2.1618    0.6889 C.ar      1 <0>         0.0000
      3 C3          2.3963   -0.0305    0.7743 C.ar      1 <0>         0.0000
      4 C4          1.0522   -2.1100    2.0710 C.ar      1 <0>         0.0000
      5 C5          2.1965    0.0170    2.1578 C.ar      1 <0>         0.0000
      6 C6          1.5211   -1.0189    2.8175 C.ar      1 <0>         0.0000
      7 C7          0.0729    2.0492    4.3397 C.2       1 <0>         0.0000
      8 C8         -0.2111    3.2542    3.4582 C.3       1 <0>         0.0000
      9 C9         -0.1685   -0.3915    4.5927 C.3       1 <0>         0.0000
     10 C10         1.2484   -0.9256    4.3057 C.3       1 <0>         0.0000
     11 N1         -0.4591    0.8611    3.9135 N.am      1 <0>         0.0000
     12 O1          0.7217    2.1445    5.3815 O.2       1 <0>         0.0000
     13 O2          1.2953   -2.1989    4.9596 O.3       1 <0>         0.0000
     14 H1          2.0833   -1.1624   -1.0389 H         1 <0>         0.0000
     15 H2          0.8912   -3.0144    0.1202 H         1 <0>         0.0000
     16 H3          2.9249    0.7779    0.2752 H         1 <0>         0.0000
     17 H4          0.5368   -2.9184    2.5828 H         1 <0>         0.0000
     18 H5          2.5710    0.8622    2.7315 H         1 <0>         0.0000
     19 H6         -0.8005    3.9753    4.0313 H         1 <0>         0.0000
     20 H7          0.7375    3.7342    3.2041 H         1 <0>         0.0000
     21 H8         -0.7481    3.0091    2.5376 H         1 <0>         0.0000
     22 H9         -0.2715   -0.2405    5.6687 H         1 <0>         0.0000
     23 H10        -0.8983   -1.1405    4.2731 H         1 <0>         0.0000
     24 H11         1.9651   -0.2324    4.7627 H         1 <0>         0.0000
     25 H12        -0.8104    0.8107    2.9670 H         1 <0>         0.0000
     26 H13         2.1922   -2.5539    4.8556 H         1 <0>         0.0000
@<TRIPOS>BOND
     1    1    3 ar
     2    1    2 ar
     3    1   14 1
     4    2    4 ar
     5    2   15 1
     6    3    5 ar
     7    3   16 1
     8    4    6 ar
     9    4   17 1
    10    5    6 ar
    11    5   18 1
    12    6   10 1
    13    7    8 1
    14    7   11 am
    15    7   12 2
    16    8   19 1
    17    8   20 1
    18    8   21 1
    19    9   10 1
    20    9   11 1
    21    9   22 1
    22    9   23 1
    23   10   13 1
    24   10   24 1
    25   11   25 1
    26   13   26 1
