@<TRIPOS>MOLECULE
*****
   26    25     0     0     0
SMALL
NO_CHARGES

@<TRIPOS>ATOM
      1 C1         -2.8518   -0.4821    1.6559 C.2       1 <0>         0.0000
      2 C2         -0.2389    0.7378   -0.4109 C.2       1 <0>         0.0000
      3 C3         -3.2498   -0.2602    3.1040 C.3       1 <0>         0.0000
      4 C4         -2.4901    1.6339   -1.1255 C.3       1 <0>         0.0000
      5 C5          0.1575   -1.6695    0.2837 C.3       1 <0>         0.0000
      6 C6          2.5359    0.0055   -1.4614 C.3       1 <0>         0.0000
      7 C7         -1.7657    0.5393   -0.3417 C.3       1 <0>         0.0000
      8 N1         -2.1562    0.5404    1.0684 N.am      1 <0>         0.0000
      9 N2          0.5291   -0.4036   -0.3382 N.am      1 <0>         0.0000
     10 O1         -3.1321   -1.5226    1.0580 O.2       1 <0>         0.0000
     11 O2          0.2482    1.8552   -0.5600 O.2       1 <0>         0.0000
     12 O3          1.9114   -0.1797   -0.1816 O.3       1 <0>         0.0000
     13 H1         -4.3400   -0.3032    3.1761 H         1 <0>         0.0000
     14 H2         -2.8489   -1.0791    3.7068 H         1 <0>         0.0000
     15 H3         -2.9020    0.6913    3.5154 H         1 <0>         0.0000
     16 H4         -2.2284    2.6245   -0.7460 H         1 <0>         0.0000
     17 H5         -3.5703    1.4838   -1.0448 H         1 <0>         0.0000
     18 H6         -2.2061    1.5976   -2.1813 H         1 <0>         0.0000
     19 H7          0.7027   -2.4754   -0.2138 H         1 <0>         0.0000
     20 H8         -0.9117   -1.8510    0.1903 H         1 <0>         0.0000
     21 H9          0.4240   -1.6626    1.3470 H         1 <0>         0.0000
     22 H10         3.6031    0.0884   -1.2442 H         1 <0>         0.0000
     23 H11         2.1784    0.9236   -1.9347 H         1 <0>         0.0000
     24 H12         2.3531   -0.8594   -2.1101 H         1 <0>         0.0000
     25 H13        -2.0562   -0.4361   -0.7305 H         1 <0>         0.0000
     26 H14        -1.9756    1.3847    1.5971 H         1 <0>         0.0000
@<TRIPOS>BOND
     1    1    3 1
     2    1    8 am
     3    1   10 2
     4    2    7 1
     5    2    9 am
     6    2   11 2
     7    3   13 1
     8    3   14 1
     9    3   15 1
    10    4    7 1
    11    4   16 1
    12    4   17 1
    13    4   18 1
    14    5    9 1
    15    5   19 1
    16    5   20 1
    17    5   21 1
    18    6   12 1
    19    6   22 1
    20    6   23 1
    21    6   24 1
    22    7    8 1
    23    7   25 1
    24    8   26 1
    25    9   12 1
