@<TRIPOS>MOLECULE
*****
   26    25     0     0     0
SMALL
NO_CHARGES

@<TRIPOS>ATOM
      1 C1         -2.3090   -0.3681    1.5930 C.2       1 <0>         0.0000
      2 C2          0.7198    0.7592   -0.1476 C.2       1 <0>         0.0000
      3 C3         -2.5973   -0.4068    3.0845 C.3       1 <0>         0.0000
      4 C4         -1.5855    1.4637   -0.9336 C.3       1 <0>         0.0000
      5 C5          2.8825    0.5509   -1.3061 C.3       1 <0>         0.0000
      6 C6          0.7585    0.3344   -3.5521 C.3       1 <0>         0.0000
      7 C7         -0.7692    0.4080   -0.1640 C.3       1 <0>         0.0000
      8 N1         -1.1920    0.3207    1.2244 N.am      1 <0>         0.0000
      9 N2          1.4237    0.5945   -1.3211 N.am      1 <0>         0.0000
     10 O1         -3.0445   -0.9225    0.7725 O.2       1 <0>         0.0000
     11 O2          1.2638    1.2283    0.8536 O.2       1 <0>         0.0000
     12 O3          0.8410   -0.2845   -2.2598 O.3       1 <0>         0.0000
     13 H1         -3.5822    0.0330    3.2634 H         1 <0>         0.0000
     14 H2         -2.6414   -1.4513    3.4049 H         1 <0>         0.0000
     15 H3         -1.8544    0.1221    3.6879 H         1 <0>         0.0000
     16 H4         -1.4227    2.4583   -0.5074 H         1 <0>         0.0000
     17 H5         -2.6443    1.2086   -0.8531 H         1 <0>         0.0000
     18 H6         -1.3143    1.4834   -1.9913 H         1 <0>         0.0000
     19 H7          3.2338   -0.4727   -1.1340 H         1 <0>         0.0000
     20 H8          3.2255    1.1982   -0.5003 H         1 <0>         0.0000
     21 H9          3.2737    0.9178   -2.2578 H         1 <0>         0.0000
     22 H10         0.1840   -0.3635   -4.1640 H         1 <0>         0.0000
     23 H11         1.7532    0.4707   -3.9916 H         1 <0>         0.0000
     24 H12         0.2450    1.2986   -3.4942 H         1 <0>         0.0000
     25 H13        -0.9186   -0.5647   -0.6361 H         1 <0>         0.0000
     26 H14        -0.5728    0.7401    1.9089 H         1 <0>         0.0000
@<TRIPOS>BOND
     1    1    3 1
     2    1    8 am
     3    1   10 2
     4    2    7 1
     5    2    9 am
     6    2   11 2
     7    3   13 1
     8    3   14 1
     9    3   15 1
    10    4    7 1
    11    4   16 1
    12    4   17 1
    13    4   18 1
    14    5    9 1
    15    5   19 1
    16    5   20 1
    17    5   21 1
    18    6   12 1
    19    6   22 1
    20    6   23 1
    21    6   24 1
    22    7    8 1
    23    7   25 1
    24    8   26 1
    25    9   12 1
