@<TRIPOS>MOLECULE
*****
   26    25     0     0     0
SMALL
NO_CHARGES

@<TRIPOS>ATOM
      1 C1         -2.3302    0.2289    0.9705 C.2       1 <0>         0.0000
      2 C2         -0.1246    1.3845   -1.2391 C.2       1 <0>         0.0000
      3 C3         -2.9207    0.4249    2.3588 C.3       1 <0>         0.0000
      4 C4         -2.2492    2.4997   -1.9628 C.3       1 <0>         0.0000
      5 C5          1.9979    2.4526   -0.6257 C.3       1 <0>         0.0000
      6 C6          0.0717    3.0037    1.7715 C.3       1 <0>         0.0000
      7 C7         -1.6582    1.3553   -1.1285 C.3       1 <0>         0.0000
      8 N1         -2.2123    1.3653    0.2146 N.am      1 <0>         0.0000
      9 N2          0.6166    2.1002   -0.3096 N.am      1 <0>         0.0000
     10 O1         -1.9965   -0.8791    0.5573 O.2       1 <0>         0.0000
     11 O2          0.4350    0.7850   -2.1502 O.2       1 <0>         0.0000
     12 O3         -0.0725    3.1485    0.3513 O.3       1 <0>         0.0000
     13 H1         -3.8443   -0.1562    2.4299 H         1 <0>         0.0000
     14 H2         -2.2235    0.0205    3.0974 H         1 <0>         0.0000
     15 H3         -3.1397    1.4686    2.6035 H         1 <0>         0.0000
     16 H4         -1.9992    3.4735   -1.5297 H         1 <0>         0.0000
     17 H5         -3.3379    2.4013   -2.0085 H         1 <0>         0.0000
     18 H6         -1.8529    2.4625   -2.9805 H         1 <0>         0.0000
     19 H7          2.0409    3.2967   -1.3239 H         1 <0>         0.0000
     20 H8          2.4707    1.5829   -1.0795 H         1 <0>         0.0000
     21 H9          2.5227    2.7115    0.2963 H         1 <0>         0.0000
     22 H10        -0.5279    3.8069    2.2072 H         1 <0>         0.0000
     23 H11         1.1161    3.1283    2.0779 H         1 <0>         0.0000
     24 H12        -0.2946    2.0273    2.1013 H         1 <0>         0.0000
     25 H13        -1.9248    0.3965   -1.5763 H         1 <0>         0.0000
     26 H14        -2.4178    2.2618    0.6316 H         1 <0>         0.0000
@<TRIPOS>BOND
     1    1    3 1
     2    1    8 am
     3    1   10 2
     4    2    7 1
     5    2    9 am
     6    2   11 2
     7    3   13 1
     8    3   14 1
     9    3   15 1
    10    4    7 1
    11    4   16 1
    12    4   17 1
    13    4   18 1
    14    5    9 1
    15    5   19 1
    16    5   20 1
    17    5   21 1
    18    6   12 1
    19    6   22 1
    20    6   23 1
    21    6   24 1
    22    7    8 1
    23    7   25 1
    24    8   26 1
    25    9   12 1
