@<TRIPOS>MOLECULE
*****
   35    35     0     0     0
SMALL
NO_CHARGES

@<TRIPOS>ATOM
      1 C1          4.0918   -4.5727   -5.4757 C.2       1 <0>         0.0000
      2 C2          1.6484   -3.0738   -0.4454 C.3       1 <0>         0.0000
      3 C3          2.0230   -0.8098   -1.1410 C.3       1 <0>         0.0000
      4 C4          1.0060   -3.3838   -1.7936 C.3       1 <0>         0.0000
      5 C5          1.3813   -1.1211   -2.4888 C.3       1 <0>         0.0000
      6 C6          5.1709   -5.3573   -4.7447 C.3       1 <0>         0.0000
      7 C7          2.8403   -1.5746   -5.6065 C.3       1 <0>         0.0000
      8 C8          2.0309   -1.3591    1.2112 C.3       1 <0>         0.0000
      9 C9          1.1041   -2.8688   -4.1880 C.3       1 <0>         0.0000
     10 C10         2.2438   -2.9344   -5.2195 C.3       1 <0>         0.0000
     11 N1          1.4653   -1.6666   -0.0958 N.3       1 <0>         0.0000
     12 N2          1.5821   -2.5313   -2.8387 N.3       1 <0>         0.0000
     13 N3          3.2707   -3.8236   -4.6853 N.am      1 <0>         0.0000
     14 O1          3.9691   -4.6312   -6.7012 O.2       1 <0>         0.0000
     15 H1          1.1821   -3.6928    0.3292 H         1 <0>         0.0000
     16 H2          2.7226   -3.3439   -0.4895 H         1 <0>         0.0000
     17 H3          3.1203   -0.9360   -1.2274 H         1 <0>         0.0000
     18 H4          1.8277    0.2361   -0.8796 H         1 <0>         0.0000
     19 H5          1.1951   -4.4313   -2.0497 H         1 <0>         0.0000
     20 H6         -0.0875   -3.2456   -1.7127 H         1 <0>         0.0000
     21 H7          0.3045   -0.8760   -2.4406 H         1 <0>         0.0000
     22 H8          1.8318   -0.4897   -3.2577 H         1 <0>         0.0000
     23 H9          5.0566   -6.4180   -4.9842 H         1 <0>         0.0000
     24 H10         6.1490   -5.0412   -5.1179 H         1 <0>         0.0000
     25 H11         5.1449   -5.2316   -3.6583 H         1 <0>         0.0000
     26 H12         3.3390   -1.1049   -4.7531 H         1 <0>         0.0000
     27 H13         3.5805   -1.7137   -6.3990 H         1 <0>         0.0000
     28 H14         2.0635   -0.8951   -5.9754 H         1 <0>         0.0000
     29 H15         1.5578   -1.9846    1.9752 H         1 <0>         0.0000
     30 H16         1.8346   -0.3115    1.4617 H         1 <0>         0.0000
     31 H17         3.1243   -1.5251    1.2590 H         1 <0>         0.0000
     32 H18         0.6355   -3.8572   -4.1532 H         1 <0>         0.0000
     33 H19         0.3334   -2.1622   -4.5312 H         1 <0>         0.0000
     34 H20         1.8549   -3.4082   -6.1253 H         1 <0>         0.0000
     35 H21         3.4690   -3.7032   -3.6980 H         1 <0>         0.0000
@<TRIPOS>BOND
     1    1    6 1
     2    1   13 am
     3    1   14 2
     4    2    4 1
     5    2   11 1
     6    2   15 1
     7    2   16 1
     8    3    5 1
     9    3   11 1
    10    3   17 1
    11    3   18 1
    12    4   12 1
    13    4   19 1
    14    4   20 1
    15    5   12 1
    16    5   21 1
    17    5   22 1
    18    6   23 1
    19    6   24 1
    20    6   25 1
    21    7   10 1
    22    7   26 1
    23    7   27 1
    24    7   28 1
    25    8   11 1
    26    8   29 1
    27    8   30 1
    28    8   31 1
    29    9   10 1
    30    9   12 1
    31    9   32 1
    32    9   33 1
    33   10   13 1
    34   10   34 1
    35   13   35 1
