@<TRIPOS>MOLECULE
*****
   26    26     0     0     0
SMALL
NO_CHARGES

@<TRIPOS>ATOM
      1 C1          1.6864   -0.8994   -0.2787 C.ar      1 <0>         0.0000
      2 C2          1.3101    0.1530    0.5618 C.ar      1 <0>         0.0000
      3 C3          2.0389   -2.1314    0.2802 C.ar      1 <0>         0.0000
      4 C4          1.2884   -0.0228    1.9481 C.ar      1 <0>         0.0000
      5 C5          2.0183   -2.3081    1.6671 C.ar      1 <0>         0.0000
      6 C6          1.6437   -1.2563    2.5149 C.ar      1 <0>         0.0000
      7 C7         -1.6167   -0.2036    3.7078 C.2       1 <0>         0.0000
      8 C8         -2.8346   -0.8147    3.0385 C.3       1 <0>         0.0000
      9 C9          0.5557   -0.7048    4.7710 C.3       1 <0>         0.0000
     10 C10         1.6704   -1.4495    4.0229 C.3       1 <0>         0.0000
     11 N1         -0.7579   -1.0968    4.2938 N.am      1 <0>         0.0000
     12 O1         -1.4182    1.0119    3.7126 O.2       1 <0>         0.0000
     13 O2          1.5594   -2.8619    4.2906 O.3       1 <0>         0.0000
     14 H1          1.7005   -0.7615   -1.3570 H         1 <0>         0.0000
     15 H2          1.0234    1.1132    0.1409 H         1 <0>         0.0000
     16 H3          2.3298   -2.9583   -0.3631 H         1 <0>         0.0000
     17 H4          0.9674    0.8041    2.5733 H         1 <0>         0.0000
     18 H5          2.2832   -3.2665    2.0998 H         1 <0>         0.0000
     19 H6         -3.7131   -0.2155    3.2863 H         1 <0>         0.0000
     20 H7         -2.6915   -0.7670    1.9544 H         1 <0>         0.0000
     21 H8         -3.0109   -1.8559    3.3232 H         1 <0>         0.0000
     22 H9          0.6379    0.3763    4.6553 H         1 <0>         0.0000
     23 H10         0.6507   -0.9235    5.8435 H         1 <0>         0.0000
     24 H11         2.6346   -1.0844    4.4089 H         1 <0>         0.0000
     25 H12        -0.9006   -2.0863    4.1332 H         1 <0>         0.0000
     26 H13         1.8189   -3.0096    5.2136 H         1 <0>         0.0000
@<TRIPOS>BOND
     1    1    3 ar
     2    1    2 ar
     3    1   14 1
     4    2    4 ar
     5    2   15 1
     6    3    5 ar
     7    3   16 1
     8    4    6 ar
     9    4   17 1
    10    5    6 ar
    11    5   18 1
    12    6   10 1
    13    7    8 1
    14    7   11 am
    15    7   12 2
    16    8   19 1
    17    8   20 1
    18    8   21 1
    19    9   10 1
    20    9   11 1
    21    9   22 1
    22    9   23 1
    23   10   13 1
    24   10   24 1
    25   11   25 1
    26   13   26 1
