@<TRIPOS>MOLECULE
*****
   26    26     0     0     0
SMALL
NO_CHARGES

@<TRIPOS>ATOM
      1 C1          1.5602   -1.2520   -0.0035 C.ar      1 <0>         0.0000
      2 C2          1.5296    0.0198    0.5816 C.ar      1 <0>         0.0000
      3 C3          1.7166   -2.3784    0.8083 C.ar      1 <0>         0.0000
      4 C4          1.6440    0.1556    1.9668 C.ar      1 <0>         0.0000
      5 C5          1.8342   -2.2386    2.1967 C.ar      1 <0>         0.0000
      6 C6          1.7917   -0.9721    2.7902 C.ar      1 <0>         0.0000
      7 C7         -1.4623   -1.5667    5.5624 C.2       1 <0>         0.0000
      8 C8         -2.6093   -2.4292    5.0615 C.3       1 <0>         0.0000
      9 C9          0.5388   -0.2565    4.8651 C.3       1 <0>         0.0000
     10 C10         1.8647   -0.8029    4.3054 C.3       1 <0>         0.0000
     11 N1         -0.5454   -1.1965    4.6045 N.am      1 <0>         0.0000
     12 O1         -1.3626   -1.2369    6.7410 O.2       1 <0>         0.0000
     13 O2          2.2261   -2.0038    4.9772 O.3       1 <0>         0.0000
     14 H1          1.4721   -1.3604   -1.0814 H         1 <0>         0.0000
     15 H2          1.4203    0.9039   -0.0414 H         1 <0>         0.0000
     16 H3          1.7549   -3.3690    0.3618 H         1 <0>         0.0000
     17 H4          1.6258    1.1502    2.4089 H         1 <0>         0.0000
     18 H5          1.9852   -3.1114    2.8239 H         1 <0>         0.0000
     19 H6         -2.7135   -3.2927    5.7224 H         1 <0>         0.0000
     20 H7         -3.5358   -1.8512    5.1286 H         1 <0>         0.0000
     21 H8         -2.4820   -2.7751    4.0317 H         1 <0>         0.0000
     22 H9          0.3141    0.7222    4.4258 H         1 <0>         0.0000
     23 H10         0.6114   -0.1412    5.9475 H         1 <0>         0.0000
     24 H11         2.6510   -0.0781    4.5430 H         1 <0>         0.0000
     25 H12        -0.7526   -1.4048    3.6351 H         1 <0>         0.0000
     26 H13         1.4049   -2.4973    5.1450 H         1 <0>         0.0000
@<TRIPOS>BOND
     1    1    3 ar
     2    1    2 ar
     3    1   14 1
     4    2    4 ar
     5    2   15 1
     6    3    5 ar
     7    3   16 1
     8    4    6 ar
     9    4   17 1
    10    5    6 ar
    11    5   18 1
    12    6   10 1
    13    7    8 1
    14    7   11 am
    15    7   12 2
    16    8   19 1
    17    8   20 1
    18    8   21 1
    19    9   10 1
    20    9   11 1
    21    9   22 1
    22    9   23 1
    23   10   13 1
    24   10   24 1
    25   11   25 1
    26   13   26 1
