@<TRIPOS>MOLECULE
*****
   35    35     0     0     0
SMALL
NO_CHARGES

@<TRIPOS>ATOM
      1 C1          4.5996   -1.3866   -4.4278 C.2       1 <0>         0.0000
      2 C2          2.8242   -1.2072    0.3384 C.3       1 <0>         0.0000
      3 C3          0.5825   -0.4730   -0.0752 C.3       1 <0>         0.0000
      4 C4          2.6714   -2.2905   -0.7237 C.3       1 <0>         0.0000
      5 C5          0.4212   -1.5574   -1.1352 C.3       1 <0>         0.0000
      6 C6          5.0293    0.0723   -4.4674 C.3       1 <0>         0.0000
      7 C7          2.5418   -3.7403   -4.9856 C.3       1 <0>         0.0000
      8 C8          1.6667    0.1024    2.0048 C.3       1 <0>         0.0000
      9 C9          1.5778   -2.8462   -2.8323 C.3       1 <0>         0.0000
     10 C10         2.8426   -2.9685   -3.6976 C.3       1 <0>         0.0000
     11 N1          1.5343   -0.8948    0.9506 N.3       1 <0>         0.0000
     12 N2          1.7134   -1.8695   -1.7518 N.3       1 <0>         0.0000
     13 N3          3.3322   -1.6159   -3.9681 N.am      1 <0>         0.0000
     14 O1          5.3457   -2.2898   -4.8102 O.2       1 <0>         0.0000
     15 H1          3.5084   -1.5605    1.1174 H         1 <0>         0.0000
     16 H2          3.2800   -0.3105   -0.1264 H         1 <0>         0.0000
     17 H3          0.9053    0.4661   -0.5666 H         1 <0>         0.0000
     18 H4         -0.3869   -0.2841    0.3990 H         1 <0>         0.0000
     19 H5          3.6440   -2.4690   -1.1904 H         1 <0>         0.0000
     20 H6          2.3477   -3.2315   -0.2427 H         1 <0>         0.0000
     21 H7         -0.0284   -2.4530   -0.6691 H         1 <0>         0.0000
     22 H8         -0.2628   -1.2050   -1.9147 H         1 <0>         0.0000
     23 H9          5.9772    0.1742   -3.9325 H         1 <0>         0.0000
     24 H10         5.2083    0.3568   -5.5082 H         1 <0>         0.0000
     25 H11         4.2937    0.7574   -4.0363 H         1 <0>         0.0000
     26 H12         1.7949   -3.2094   -5.5858 H         1 <0>         0.0000
     27 H13         3.4525   -3.8533   -5.5758 H         1 <0>         0.0000
     28 H14         2.1532   -4.7372   -4.7482 H         1 <0>         0.0000
     29 H15         2.3500   -0.2651    2.7773 H         1 <0>         0.0000
     30 H16         0.6919    0.2792    2.4708 H         1 <0>         0.0000
     31 H17         2.0532    1.0721    1.6365 H         1 <0>         0.0000
     32 H18         1.3117   -3.8502   -2.4563 H         1 <0>         0.0000
     33 H19         0.7515   -2.5122   -3.4710 H         1 <0>         0.0000
     34 H20         3.6218   -3.5157   -3.1527 H         1 <0>         0.0000
     35 H21         2.8826   -0.8934   -3.4129 H         1 <0>         0.0000
@<TRIPOS>BOND
     1    1    6 1
     2    1   13 am
     3    1   14 2
     4    2    4 1
     5    2   11 1
     6    2   15 1
     7    2   16 1
     8    3    5 1
     9    3   11 1
    10    3   17 1
    11    3   18 1
    12    4   12 1
    13    4   19 1
    14    4   20 1
    15    5   12 1
    16    5   21 1
    17    5   22 1
    18    6   23 1
    19    6   24 1
    20    6   25 1
    21    7   10 1
    22    7   26 1
    23    7   27 1
    24    7   28 1
    25    8   11 1
    26    8   29 1
    27    8   30 1
    28    8   31 1
    29    9   10 1
    30    9   12 1
    31    9   32 1
    32    9   33 1
    33   10   13 1
    34   10   34 1
    35   13   35 1
