@<TRIPOS>MOLECULE
*****
   35    35     0     0     0
SMALL
NO_CHARGES

@<TRIPOS>ATOM
      1 C1          2.7792   -4.1051   -5.6784 C.2       1 <0>         0.0000
      2 C2          2.9653   -1.3952    0.5021 C.3       1 <0>         0.0000
      3 C3          0.8564   -0.5406   -0.2457 C.3       1 <0>         0.0000
      4 C4          2.9307   -2.4484   -0.6002 C.3       1 <0>         0.0000
      5 C5          0.8230   -1.5932   -1.3495 C.3       1 <0>         0.0000
      6 C6          2.4211   -5.0458   -6.8207 C.3       1 <0>         0.0000
      7 C7          2.9533   -1.1680   -4.5776 C.3       1 <0>         0.0000
      8 C8          1.6176   -0.0559    1.9932 C.3       1 <0>         0.0000
      9 C9          2.2036   -2.9092   -2.8651 C.3       1 <0>         0.0000
     10 C10         1.9160   -2.2385   -4.2236 C.3       1 <0>         0.0000
     11 N1          1.6088   -1.0283    0.9087 N.3       1 <0>         0.0000
     12 N2          2.1802   -1.9570   -1.7576 N.3       1 <0>         0.0000
     13 N3          1.7830   -3.2582   -5.2785 N.am      1 <0>         0.0000
     14 O1          3.8983   -4.1231   -5.1637 O.2       1 <0>         0.0000
     15 H1          3.4960   -1.7982    1.3719 H         1 <0>         0.0000
     16 H2          3.5304   -0.5146    0.1396 H         1 <0>         0.0000
     17 H3          1.2962    0.3912   -0.6521 H         1 <0>         0.0000
     18 H4         -0.1681   -0.3153    0.0717 H         1 <0>         0.0000
     19 H5          3.9539   -2.6729   -0.9177 H         1 <0>         0.0000
     20 H6          2.4893   -3.3785   -0.1950 H         1 <0>         0.0000
     21 H7          0.2625   -2.4777   -0.9903 H         1 <0>         0.0000
     22 H8          0.2810   -1.1828   -2.2074 H         1 <0>         0.0000
     23 H9          3.0988   -4.8518   -7.6567 H         1 <0>         0.0000
     24 H10         2.5921   -6.0742   -6.4920 H         1 <0>         0.0000
     25 H11         1.3889   -4.9505   -7.1708 H         1 <0>         0.0000
     26 H12         3.9421   -1.6183   -4.6884 H         1 <0>         0.0000
     27 H13         2.6877   -0.6695   -5.5157 H         1 <0>         0.0000
     28 H14         2.9930   -0.4251   -3.7770 H         1 <0>         0.0000
     29 H15         2.1498   -0.4696    2.8561 H         1 <0>         0.0000
     30 H16         0.5901    0.1636    2.3020 H         1 <0>         0.0000
     31 H17         2.1043    0.8988    1.7147 H         1 <0>         0.0000
     32 H18         3.1970   -3.3583   -2.9202 H         1 <0>         0.0000
     33 H19         1.4814   -3.7335   -2.7151 H         1 <0>         0.0000
     34 H20         0.9317   -1.7613   -4.1739 H         1 <0>         0.0000
     35 H21         0.9025   -3.3094   -5.7702 H         1 <0>         0.0000
@<TRIPOS>BOND
     1    1    6 1
     2    1   13 am
     3    1   14 2
     4    2    4 1
     5    2   11 1
     6    2   15 1
     7    2   16 1
     8    3    5 1
     9    3   11 1
    10    3   17 1
    11    3   18 1
    12    4   12 1
    13    4   19 1
    14    4   20 1
    15    5   12 1
    16    5   21 1
    17    5   22 1
    18    6   23 1
    19    6   24 1
    20    6   25 1
    21    7   10 1
    22    7   26 1
    23    7   27 1
    24    7   28 1
    25    8   11 1
    26    8   29 1
    27    8   30 1
    28    8   31 1
    29    9   10 1
    30    9   12 1
    31    9   32 1
    32    9   33 1
    33   10   13 1
    34   10   34 1
    35   13   35 1
