@<TRIPOS>MOLECULE
*****
   30    30     0     0     0
SMALL
NO_CHARGES

@<TRIPOS>ATOM
      1 C1          5.3728   -2.0125   -1.3713 C.ar      1 <0>         0.0000
      2 C2          5.7770   -2.2416   -0.0515 C.ar      1 <0>         0.0000
      3 C3          4.1997   -1.2922   -1.6173 C.ar      1 <0>         0.0000
      4 C4          5.0123   -1.7460    1.0077 C.ar      1 <0>         0.0000
      5 C5          3.4373   -0.7975   -0.5544 C.ar      1 <0>         0.0000
      6 C6          3.8394   -1.0154    0.7682 C.ar      1 <0>         0.0000
      7 C7          2.2458    2.1162    4.0899 C.2       1 <0>         0.0000
      8 C8          1.6658    2.0721    5.4926 C.3       1 <0>         0.0000
      9 C9          3.9379    1.9412    1.5217 C.3       1 <0>         0.0000
     10 C10         3.0572   -0.4449    1.9447 C.3       1 <0>         0.0000
     11 C11         3.7958    0.7931    2.5346 C.3       1 <0>         0.0000
     12 N1          3.1967    1.1770    3.8240 N.am      1 <0>         0.0000
     13 O1          1.8562    2.9771    3.2889 O.2       1 <0>         0.0000
     14 O2          2.7236    2.3097    0.8697 O.3       1 <0>         0.0000
     15 O3          1.7031   -0.1503    1.6546 O.3       1 <0>         0.0000
     16 H1          5.9629   -2.3979   -2.1988 H         1 <0>         0.0000
     17 H2          6.6807   -2.8107    0.1517 H         1 <0>         0.0000
     18 H3          3.8752   -1.1155   -2.6396 H         1 <0>         0.0000
     19 H4          5.3271   -1.9414    2.0322 H         1 <0>         0.0000
     20 H5          2.5253   -0.2445   -0.7542 H         1 <0>         0.0000
     21 H6          1.6041    3.0916    5.8781 H         1 <0>         0.0000
     22 H7          0.6471    1.6772    5.4292 H         1 <0>         0.0000
     23 H8          2.2394    1.4540    6.1887 H         1 <0>         0.0000
     24 H9          4.6162    1.5979    0.7381 H         1 <0>         0.0000
     25 H10         4.3948    2.8076    2.0152 H         1 <0>         0.0000
     26 H11         3.0279   -1.2113    2.7298 H         1 <0>         0.0000
     27 H12         4.8207    0.4800    2.7680 H         1 <0>         0.0000
     28 H13         3.3404    0.4984    4.5611 H         1 <0>         0.0000
     29 H14         2.2119    2.7855    1.5656 H         1 <0>         0.0000
     30 H15         1.7074    0.6919    1.1562 H         1 <0>         0.0000
@<TRIPOS>BOND
     1    1    3 ar
     2    1    2 ar
     3    1   16 1
     4    2    4 ar
     5    2   17 1
     6    3    5 ar
     7    3   18 1
     8    4    6 ar
     9    4   19 1
    10    5    6 ar
    11    5   20 1
    12    6   10 1
    13    7    8 1
    14    7   12 am
    15    7   13 2
    16    8   21 1
    17    8   22 1
    18    8   23 1
    19    9   11 1
    20    9   14 1
    21    9   24 1
    22    9   25 1
    23   10   11 1
    24   10   15 1
    25   10   26 1
    26   11   12 1
    27   11   27 1
    28   12   28 1
    29   14   29 1
    30   15   30 1
