@<TRIPOS>MOLECULE
*****
   26    25     0     0     0
SMALL
NO_CHARGES

@<TRIPOS>ATOM
      1 C1         -1.5859    1.8945    2.2061 C.2       1 <0>         0.0000
      2 C2          0.3139    0.9425   -0.0177 C.2       1 <0>         0.0000
      3 C3         -2.2146    1.8561    3.5910 C.3       1 <0>         0.0000
      4 C4         -2.0027    1.4305   -0.8923 C.3       1 <0>         0.0000
      5 C5          2.5965    0.2895    0.5896 C.3       1 <0>         0.0000
      6 C6          0.7922   -0.7838    2.9067 C.3       1 <0>         0.0000
      7 C7         -1.1860    0.6109    0.1096 C.3       1 <0>         0.0000
      8 N1         -1.6917    0.7419    1.4763 N.am      1 <0>         0.0000
      9 N2          1.1720    0.3510    0.9017 N.am      1 <0>         0.0000
     10 O1         -1.0236    2.8979    1.7739 O.2       1 <0>         0.0000
     11 O2          0.7508    1.6666   -0.9011 O.2       1 <0>         0.0000
     12 O3          0.6896   -0.8520    1.4793 O.3       1 <0>         0.0000
     13 H1         -1.4806    2.2101    4.3190 H         1 <0>         0.0000
     14 H2         -3.0577    2.5529    3.6106 H         1 <0>         0.0000
     15 H3         -2.5709    0.8653    3.8885 H         1 <0>         0.0000
     16 H4         -1.9134    2.4948   -0.6723 H         1 <0>         0.0000
     17 H5         -3.0542    1.1331   -0.8316 H         1 <0>         0.0000
     18 H6         -1.6405    1.2592   -1.9082 H         1 <0>         0.0000
     19 H7          3.1528    0.0613    1.5011 H         1 <0>         0.0000
     20 H8          2.9007    1.2665    0.2167 H         1 <0>         0.0000
     21 H9          2.8064   -0.4721   -0.1711 H         1 <0>         0.0000
     22 H10         0.3479   -1.7125    3.2733 H         1 <0>         0.0000
     23 H11         0.2484    0.0812    3.2958 H         1 <0>         0.0000
     24 H12         1.8390   -0.7344    3.2276 H         1 <0>         0.0000
     25 H13        -1.2736   -0.4531   -0.1341 H         1 <0>         0.0000
     26 H14        -2.1147   -0.0694    1.9029 H         1 <0>         0.0000
@<TRIPOS>BOND
     1    1    3 1
     2    1    8 am
     3    1   10 2
     4    2    7 1
     5    2    9 am
     6    2   11 2
     7    3   13 1
     8    3   14 1
     9    3   15 1
    10    4    7 1
    11    4   16 1
    12    4   17 1
    13    4   18 1
    14    5    9 1
    15    5   19 1
    16    5   20 1
    17    5   21 1
    18    6   12 1
    19    6   22 1
    20    6   23 1
    21    6   24 1
    22    7    8 1
    23    7   25 1
    24    8   26 1
    25    9   12 1
