@<TRIPOS>MOLECULE
*****
   25    26     0     0     0
SMALL
NO_CHARGES

@<TRIPOS>ATOM
      1 C1         -2.4364   -5.8437   -2.9848 C.ar      1 <0>         0.0000
      2 C2         -1.1065   -7.3276   -4.3957 C.ar      1 <0>         0.0000
      3 C3         -1.3053   -5.5337   -2.2168 C.ar      1 <0>         0.0000
      4 C4          0.0009   -7.0212   -3.6117 C.ar      1 <0>         0.0000
      5 C5         -0.0845   -6.1406   -2.5376 C.ar      1 <0>         0.0000
      6 C6         -2.3173   -6.7231   -4.0593 C.ar      1 <0>         0.0000
      7 C7          1.1675   -2.6543   -1.0746 C.3       1 <0>         0.0000
      8 C8          1.0416   -2.5696   -2.5940 C.3       1 <0>         0.0000
      9 C9         -1.0453   -2.3490   -1.6236 C.3       1 <0>         0.0000
     10 C10        -2.0119   -3.4644   -1.2230 C.3       1 <0>         0.0000
     11 O1         -0.0725   -2.0823   -0.6286 O.3       1 <0>         0.0000
     12 O2         -0.3691   -2.7222   -2.8162 O.3       1 <0>         0.0000
     13 O3         -1.3369   -4.7261   -1.1168 O.3       1 <0>         0.0000
     14 F1          1.1974   -7.5737   -3.8985 F         1 <0>         0.0000
     15 F2          1.0226   -5.8630   -1.8205 F         1 <0>         0.0000
     16 Br1        -3.8746   -7.1300   -5.0980 Br        1 <0>         0.0000
     17 H1         -3.3997   -5.4153   -2.7356 H         1 <0>         0.0000
     18 H2         -1.0078   -8.0139   -5.2287 H         1 <0>         0.0000
     19 H3          1.2568   -3.6879   -0.7304 H         1 <0>         0.0000
     20 H4          1.9814   -2.0484   -0.6705 H         1 <0>         0.0000
     21 H5          1.3753   -1.5978   -2.9790 H         1 <0>         0.0000
     22 H6          1.5588   -3.3746   -3.1202 H         1 <0>         0.0000
     23 H7         -1.6204   -1.4228   -1.7767 H         1 <0>         0.0000
     24 H8         -2.8309   -3.5067   -1.9467 H         1 <0>         0.0000
     25 H9         -2.4208   -3.2471   -0.2338 H         1 <0>         0.0000
@<TRIPOS>BOND
     1    1    3 ar
     2    1    6 ar
     3    1   17 1
     4    2    4 ar
     5    2    6 ar
     6    2   18 1
     7    3    5 ar
     8    3   13 1
     9    4    5 ar
    10    4   14 1
    11    5   15 1
    12    6   16 1
    13    7    8 1
    14    7   11 1
    15    7   19 1
    16    7   20 1
    17    8   12 1
    18    8   21 1
    19    8   22 1
    20    9   10 1
    21    9   12 1
    22    9   11 1
    23    9   23 1
    24   10   13 1
    25   10   24 1
    26   10   25 1
