@<TRIPOS>MOLECULE
*****
   33    35     0     0     0
SMALL
NO_CHARGES

@<TRIPOS>ATOM
      1 C1          2.6565   -2.1687    1.9712 C.ar      1 <0>         0.0000
      2 C2          1.5985   -1.5225    2.5885 C.ar      1 <0>         0.0000
      3 C3          3.1530   -1.7037    0.7400 C.ar      1 <0>         0.0000
      4 C4         -3.5027    1.7497    5.3820 C.ar      1 <0>         0.0000
      5 C5         -4.2949    1.6923    6.5089 C.ar      1 <0>         0.0000
      6 C6          1.0003   -0.3873    1.9944 C.ar      1 <0>         0.0000
      7 C7          2.5724   -0.5892    0.1477 C.ar      1 <0>         0.0000
      8 C8          1.4911    0.0815    0.7661 C.ar      1 <0>         0.0000
      9 C9         -2.5034    0.7657    5.2508 C.ar      1 <0>         0.0000
     10 C10        -4.0492    0.6626    7.4385 C.ar      1 <0>         0.0000
     11 C11        -1.6134    0.7584    4.0728 C.2       1 <0>         0.0000
     12 C12        -0.1096    0.2389    2.7055 C.2       1 <0>         0.0000
     13 C13        -4.8620    0.5236    8.6982 C.3       1 <0>         0.0000
     14 C14         4.0316   -0.6175   -1.7606 C.3       1 <0>         0.0000
     15 N1         -2.3075   -0.1947    6.1613 N.ar      1 <0>         0.0000
     16 N2         -3.0785   -0.2442    7.2495 N.ar      1 <0>         0.0000
     17 N3         -0.6104   -0.1522    3.8531 N.2       1 <0>         0.0000
     18 N4         -1.7404    1.6685    3.1251 N.2       1 <0>         0.0000
     19 O1         -0.7399    1.3295    2.2072 O.3       1 <0>         0.0000
     20 O2          0.9506    1.1676    0.1551 O.3       1 <0>         0.0000
     21 O3          2.9482   -0.0209   -1.0491 O.3       1 <0>         0.0000
     22 H1          3.1086   -3.0395    2.4359 H         1 <0>         0.0000
     23 H2          1.2043   -1.8684    3.5375 H         1 <0>         0.0000
     24 H3          3.9818   -2.2159    0.2637 H         1 <0>         0.0000
     25 H4         -3.6266    2.5104    4.6178 H         1 <0>         0.0000
     26 H5         -5.0877    2.4155    6.6830 H         1 <0>         0.0000
     27 H6         -5.9271    0.4129    8.4671 H         1 <0>         0.0000
     28 H7         -4.5276   -0.3512    9.2580 H         1 <0>         0.0000
     29 H8         -4.7548    1.4113    9.3316 H         1 <0>         0.0000
     30 H9          4.1618   -0.0214   -2.6642 H         1 <0>         0.0000
     31 H10         3.7975   -1.6527   -2.0344 H         1 <0>         0.0000
     32 H11         4.9525   -0.5899   -1.1668 H         1 <0>         0.0000
     33 H12         1.4457    1.3061   -0.6737 H         1 <0>         0.0000
@<TRIPOS>BOND
     1    1    2 ar
     2    1    3 ar
     3    1   22 1
     4    2    6 ar
     5    2   23 1
     6    3    7 ar
     7    3   24 1
     8    4    5 ar
     9    4    9 ar
    10    4   25 1
    11    5   10 ar
    12    5   26 1
    13    6    8 ar
    14    6   12 1
    15    7    8 ar
    16    7   21 1
    17    8   20 1
    18    9   11 1
    19    9   15 ar
    20   10   13 1
    21   10   16 ar
    22   11   17 1
    23   11   18 2
    24   12   17 2
    25   12   19 1
    26   13   27 1
    27   13   28 1
    28   13   29 1
    29   14   21 1
    30   14   30 1
    31   14   31 1
    32   14   32 1
    33   15   16 ar
    34   18   19 1
    35   20   33 1
