@<TRIPOS>MOLECULE
*****
   34    37     0     0     0
SMALL
NO_CHARGES

@<TRIPOS>ATOM
      1 C1         -0.2292   -1.8419    0.1732 C.ar      1 <0>         0.0000
      2 C2          0.5870   -0.9435    0.8717 C.ar      1 <0>         0.0000
      3 C3          0.2185   -3.1281   -0.1548 C.ar      1 <0>         0.0000
      4 C4          1.8807   -1.3142    1.2668 C.ar      1 <0>         0.0000
      5 C5         -1.1928   -8.7574   -2.6820 C.ar      1 <0>         0.0000
      6 C6         -3.0270   -6.8514   -3.7079 C.ar      1 <0>         0.0000
      7 C7          1.5096   -3.4984    0.2323 C.ar      1 <0>         0.0000
      8 C8         -0.9458   -7.3673   -2.4855 C.ar      1 <0>         0.0000
      9 C9         -2.3274   -9.1446   -3.3538 C.ar      1 <0>         0.0000
     10 C10        -3.2312   -8.2087   -3.8564 C.ar      1 <0>         0.0000
     11 C11         2.3052   -2.5889    0.9335 C.ar      1 <0>         0.0000
     12 C12        -1.8712   -6.4435   -3.0160 C.ar      1 <0>         0.0000
     13 C13         2.2665   -4.7706    0.0542 C.2       1 <0>         0.0000
     14 C14         0.2823   -7.0599   -1.7521 C.2       1 <0>         0.0000
     15 C15        -4.0055  -10.2592   -4.3526 C.3       1 <0>         0.0000
     16 N1          3.4720   -4.8459    0.5497 N.2       1 <0>         0.0000
     17 N2          0.5796   -5.9273   -1.2149 N.2       1 <0>         0.0000
     18 N3          1.7807   -5.8769   -0.5777 N.pl3     1 <0>         0.0000
     19 O1          4.9670   -2.7368    0.5684 O.2       1 <0>         0.0000
     20 O2          4.0128   -3.5926    2.7483 O.2       1 <0>         0.0000
     21 O3         -2.7605  -10.4154   -3.6479 O.3       1 <0>         0.0000
     22 O4         -4.2659   -8.8461   -4.4860 O.3       1 <0>         0.0000
     23 S1          3.8812   -3.3814    1.3067 S.o2      1 <0>         0.0000
     24 Cl1        -1.6325   -4.7124   -2.9041 Cl        1 <0>         0.0000
     25 H1         -1.2301   -1.5384   -0.1210 H         1 <0>         0.0000
     26 H2          0.2156    0.0486    1.1131 H         1 <0>         0.0000
     27 H3         -0.4127   -3.8192   -0.6954 H         1 <0>         0.0000
     28 H4          2.5239   -0.6319    1.8142 H         1 <0>         0.0000
     29 H5         -0.4977   -9.4960   -2.2947 H         1 <0>         0.0000
     30 H6         -3.7201   -6.1226   -4.1123 H         1 <0>         0.0000
     31 H7          0.9728   -7.9085   -1.6533 H         1 <0>         0.0000
     32 H8         -3.9174  -10.7029   -5.3488 H         1 <0>         0.0000
     33 H9         -4.8119  -10.7196   -3.7730 H         1 <0>         0.0000
     34 H10         2.4135   -6.6798   -0.5970 H         1 <0>         0.0000
@<TRIPOS>BOND
     1    1    2 ar
     2    1    3 ar
     3    1   25 1
     4    2    4 ar
     5    2   26 1
     6    3    7 ar
     7    3   27 1
     8    4   11 ar
     9    4   28 1
    10    5    8 ar
    11    5    9 ar
    12    5   29 1
    13    6   10 ar
    14    6   12 ar
    15    6   30 1
    16    7   11 ar
    17    7   13 1
    18    8   12 ar
    19    8   14 1
    20    9   10 ar
    21    9   21 1
    22   10   22 1
    23   11   23 1
    24   12   24 1
    25   13   16 2
    26   13   18 1
    27   14   17 2
    28   14   31 1
    29   15   21 1
    30   15   22 1
    31   15   32 1
    32   15   33 1
    33   16   23 1
    34   17   18 1
    35   18   34 1
    36   19   23 2
    37   20   23 2
