@<TRIPOS>MOLECULE
*****
   43    45     0     0     0
SMALL
NO_CHARGES

@<TRIPOS>ATOM
      1 C1         -7.3071    3.5842    4.3534 C.ar      1 <0>         0.0000
      2 C2         -7.7303    4.0575    3.0934 C.ar      1 <0>         0.0000
      3 C3         -6.0286    3.0524    4.5150 C.ar      1 <0>         0.0000
      4 C4         -6.8928    4.0272    1.9769 C.ar      1 <0>         0.0000
      5 C5         -5.1899    3.0050    3.3974 C.ar      1 <0>         0.0000
      6 C6         -5.6088    3.5011    2.1548 C.ar      1 <0>         0.0000
      7 C7         -3.8198    2.4927    3.2345 C.2       1 <0>         0.0000
      8 C8         -2.2266    1.9031   -0.0341 C.2       1 <0>         0.0000
      9 C9          0.3172    0.0602   -2.0148 C.3       1 <0>         0.0000
     10 C10        -0.9792    0.8701   -1.8600 C.3       1 <0>         0.0000
     11 C11         0.2859    1.8127    0.0503 C.3       1 <0>         0.0000
     12 C12         1.1101    0.5362    0.3358 C.3       1 <0>         0.0000
     13 C13         0.7389   -0.5890   -0.6830 C.3       1 <0>         0.0000
     14 C14         2.5946    0.9186    0.3783 C.3       1 <0>         0.0000
     15 C15         1.8598   -1.6020   -0.8990 C.3       1 <0>         0.0000
     16 C16        -2.2332    2.6232    1.3209 C.3       1 <0>         0.0000
     17 N1         -4.5669    3.4086    1.2167 N.pl3     1 <0>         0.0000
     18 N2         -3.5570    2.6597    1.8772 N.am      1 <0>         0.0000
     19 N3         -1.0218    1.5047   -0.5291 N.am      1 <0>         0.0000
     20 O1         -3.0219    2.0303    4.0513 O.2       1 <0>         0.0000
     21 O2         -3.2831    1.7049   -0.6456 O.2       1 <0>         0.0000
     22 O3         -0.3522   -1.3752   -0.1605 O.3       1 <0>         0.0000
     23 H1         -7.9879    3.6339    5.1983 H         1 <0>         0.0000
     24 H2         -8.7334    4.4629    2.9892 H         1 <0>         0.0000
     25 H3         -5.6823    2.6735    5.4724 H         1 <0>         0.0000
     26 H4         -7.2238    4.4053    1.0136 H         1 <0>         0.0000
     27 H5          0.1598   -0.7145   -2.7706 H         1 <0>         0.0000
     28 H6          1.1333    0.6977   -2.3749 H         1 <0>         0.0000
     29 H7         -1.0625    1.6374   -2.6398 H         1 <0>         0.0000
     30 H8         -1.8558    0.2284   -1.9487 H         1 <0>         0.0000
     31 H9          0.1717    2.3994    0.9600 H         1 <0>         0.0000
     32 H10         0.8302    2.4494   -0.6608 H         1 <0>         0.0000
     33 H11         0.8266    0.1475    1.3207 H         1 <0>         0.0000
     34 H12         2.9574    1.2316   -0.6077 H         1 <0>         0.0000
     35 H13         3.2194    0.0920    0.7229 H         1 <0>         0.0000
     36 H14         2.7504    1.7577    1.0661 H         1 <0>         0.0000
     37 H15         2.1882   -2.0239    0.0552 H         1 <0>         0.0000
     38 H16         2.7202   -1.1537   -1.4024 H         1 <0>         0.0000
     39 H17         1.4834   -2.4218   -1.5172 H         1 <0>         0.0000
     40 H18        -1.8359    3.6404    1.1893 H         1 <0>         0.0000
     41 H19        -1.6207    2.1112    2.0665 H         1 <0>         0.0000
     42 H20        -4.7908    2.9370    0.3376 H         1 <0>         0.0000
     43 H21        -1.0619   -0.7719    0.1137 H         1 <0>         0.0000
@<TRIPOS>BOND
     1    1    2 ar
     2    1    3 ar
     3    1   23 1
     4    2    4 ar
     5    2   24 1
     6    3    5 ar
     7    3   25 1
     8    4    6 ar
     9    4   26 1
    10    5    6 ar
    11    5    7 1
    12    6   17 1
    13    7   18 am
    14    7   20 2
    15    8   16 1
    16    8   19 am
    17    8   21 2
    18    9   10 1
    19    9   13 1
    20    9   27 1
    21    9   28 1
    22   10   19 1
    23   10   29 1
    24   10   30 1
    25   11   12 1
    26   11   19 1
    27   11   31 1
    28   11   32 1
    29   12   13 1
    30   12   14 1
    31   12   33 1
    32   13   15 1
    33   13   22 1
    34   14   34 1
    35   14   35 1
    36   14   36 1
    37   15   37 1
    38   15   38 1
    39   15   39 1
    40   16   18 1
    41   16   40 1
    42   16   41 1
    43   17   18 1
    44   17   42 1
    45   22   43 1
