@<TRIPOS>MOLECULE
*****
   39    41     0     0     0
SMALL
NO_CHARGES

@<TRIPOS>ATOM
      1 C1          2.6493   -9.0659    2.8528 C.ar      1 <0>         0.0000
      2 C2          3.0154   -8.7825    1.5284 C.ar      1 <0>         0.0000
      3 C3          1.4164   -8.6441    3.3630 C.ar      1 <0>         0.0000
      4 C4          2.1575   -8.0690    0.6808 C.ar      1 <0>         0.0000
      5 C5         -3.5473   -9.0237    1.9091 C.2       1 <0>         0.0000
      6 C6          0.5607   -7.9341    2.5229 C.ar      1 <0>         0.0000
      7 C7         -3.8838   -8.1233    0.8383 C.2       1 <0>         0.0000
      8 C8          0.9420   -7.6612    1.2123 C.ar      1 <0>         0.0000
      9 C9         -3.9129  -10.2901    1.5231 C.2       1 <0>         0.0000
     10 C10        -4.4449   -8.8909   -0.1881 C.2       1 <0>         0.0000
     11 C11        -0.7862   -7.4053    2.8822 C.2       1 <0>         0.0000
     12 C12        -3.6534   -6.6859    0.7859 C.2       1 <0>         0.0000
     13 C13        -3.8211  -11.5874    2.2615 C.3       1 <0>         0.0000
     14 C14        -4.9179   -8.4871   -1.5465 C.3       1 <0>         0.0000
     15 C15        -4.9855  -11.3180   -0.5189 C.3       1 <0>         0.0000
     16 C16        -2.6312   -6.0900    1.7766 C.3       1 <0>         0.0000
     17 N1         -4.4423  -10.1980    0.2329 N.pl3     1 <0>         0.0000
     18 N2         -1.3434   -6.7795    1.7776 N.am      1 <0>         0.0000
     19 O1         -1.3325   -7.5058    3.9718 O.2       1 <0>         0.0000
     20 O2         -4.2146   -5.9097    0.0132 O.2       1 <0>         0.0000
     21 O3          0.0644   -5.3634    0.1089 O.2       1 <0>         0.0000
     22 O4         -0.9470   -7.5320   -0.6963 O.2       1 <0>         0.0000
     23 S1         -0.3381   -6.7432    0.3705 S.o2      1 <0>         0.0000
     24 H1          3.3341   -9.6198    3.4886 H         1 <0>         0.0000
     25 H2          3.9775   -9.1190    1.1527 H         1 <0>         0.0000
     26 H3          1.1150   -8.8527    4.3851 H         1 <0>         0.0000
     27 H4          2.4331   -7.8457   -0.3453 H         1 <0>         0.0000
     28 H5         -3.1244   -8.7668    2.8710 H         1 <0>         0.0000
     29 H6         -4.8000  -12.0659    2.3888 H         1 <0>         0.0000
     30 H7         -3.1636  -12.3086    1.7596 H         1 <0>         0.0000
     31 H8         -3.4091  -11.4044    3.2566 H         1 <0>         0.0000
     32 H9         -4.3418   -8.9859   -2.3357 H         1 <0>         0.0000
     33 H10        -5.9758   -8.7350   -1.6966 H         1 <0>         0.0000
     34 H11        -4.8034   -7.4105   -1.6602 H         1 <0>         0.0000
     35 H12        -6.0466  -11.4735   -0.2912 H         1 <0>         0.0000
     36 H13        -4.8812  -11.1341   -1.5887 H         1 <0>         0.0000
     37 H14        -4.4382  -12.2296   -0.2740 H         1 <0>         0.0000
     38 H15        -3.0057   -6.1610    2.8019 H         1 <0>         0.0000
     39 H16        -2.4910   -5.0378    1.5182 H         1 <0>         0.0000
@<TRIPOS>BOND
     1    1    2 ar
     2    1    3 ar
     3    1   24 1
     4    2    4 ar
     5    2   25 1
     6    3    6 ar
     7    3   26 1
     8    4    8 ar
     9    4   27 1
    10    5    7 1
    11    5    9 2
    12    5   28 1
    13    6    8 ar
    14    6   11 1
    15    7   10 2
    16    7   12 1
    17    8   23 1
    18    9   13 1
    19    9   17 1
    20   10   14 1
    21   10   17 1
    22   11   18 am
    23   11   19 2
    24   12   16 1
    25   12   20 2
    26   13   29 1
    27   13   30 1
    28   13   31 1
    29   14   32 1
    30   14   33 1
    31   14   34 1
    32   15   17 1
    33   15   35 1
    34   15   36 1
    35   15   37 1
    36   16   18 1
    37   16   38 1
    38   16   39 1
    39   18   23 1
    40   21   23 2
    41   22   23 2
