@<TRIPOS>MOLECULE
*****
   38    40     0     0     0
SMALL
NO_CHARGES

@<TRIPOS>ATOM
      1 C1         -3.5482    3.9414   -8.7793 C.ar      1 <0>         0.0000
      2 C2         -4.1382    2.9365   -9.5531 C.ar      1 <0>         0.0000
      3 C3         -2.6682    3.5967   -7.7535 C.ar      1 <0>         0.0000
      4 C4         -3.8387    1.5935   -9.3142 C.ar      1 <0>         0.0000
      5 C5         -0.5255    1.2439   -4.5527 C.2       1 <0>         0.0000
      6 C6         -2.3676    2.2552   -7.5004 C.ar      1 <0>         0.0000
      7 C7         -2.9452    1.2543   -8.2954 C.ar      1 <0>         0.0000
      8 C8          0.4391    1.8191   -5.4450 C.2       1 <0>         0.0000
      9 C9         -1.7215    1.3507   -5.2513 C.2       1 <0>         0.0000
     10 C10        -0.3606    0.6825   -3.2235 C.2       1 <0>         0.0000
     11 C11        -0.1205   -0.1161   -0.4950 C.3       1 <0>         0.0000
     12 C12         2.1611    0.6350   -0.7524 C.3       1 <0>         0.0000
     13 C13        -0.4565    1.2076    0.1991 C.3       1 <0>         0.0000
     14 C14         1.7825    1.9351   -0.0397 C.3       1 <0>         0.0000
     15 C15         1.9102    1.9804   -5.2320 C.3       1 <0>         0.0000
     16 N1         -0.1288    2.2332   -6.5765 N.2       1 <0>         0.0000
     17 N2          0.7976    0.6665   -2.6528 N.2       1 <0>         0.0000
     18 N3         -1.4613    1.9365   -6.4551 N.pl3     1 <0>         0.0000
     19 N4          0.9965    0.0585   -1.4385 N.pl3     1 <0>         0.0000
     20 O1          0.6954    1.7267    0.8676 O.3       1 <0>         0.0000
     21 Cl1        -2.5340   -0.4250   -8.0427 Cl        1 <0>         0.0000
     22 Cl2        -3.3179    0.9075   -4.7732 Cl        1 <0>         0.0000
     23 H1         -3.7762    4.9860   -8.9700 H         1 <0>         0.0000
     24 H2         -4.8298    3.1943  -10.3504 H         1 <0>         0.0000
     25 H3         -2.1976    4.3547   -7.1349 H         1 <0>         0.0000
     26 H4         -4.2806    0.8086   -9.9194 H         1 <0>         0.0000
     27 H5         -1.2656    0.2771   -2.7650 H         1 <0>         0.0000
     28 H6          0.2099   -0.8419    0.2549 H         1 <0>         0.0000
     29 H7         -0.9892   -0.5472   -0.9968 H         1 <0>         0.0000
     30 H8          2.9416    0.8090   -1.4961 H         1 <0>         0.0000
     31 H9          2.5213   -0.0968   -0.0212 H         1 <0>         0.0000
     32 H10        -0.8282    1.9408   -0.5319 H         1 <0>         0.0000
     33 H11        -1.2201    1.0645    0.9686 H         1 <0>         0.0000
     34 H12         2.6136    2.3141    0.5615 H         1 <0>         0.0000
     35 H13         1.5076    2.6972   -0.7850 H         1 <0>         0.0000
     36 H14         2.3824    1.0128   -5.0382 H         1 <0>         0.0000
     37 H15         2.3600    2.4367   -6.1171 H         1 <0>         0.0000
     38 H16         2.1104    2.6059   -4.3567 H         1 <0>         0.0000
@<TRIPOS>BOND
     1    1    2 ar
     2    1    3 ar
     3    1   23 1
     4    2    4 ar
     5    2   24 1
     6    3    6 ar
     7    3   25 1
     8    4    7 ar
     9    4   26 1
    10    5    8 1
    11    5    9 2
    12    5   10 1
    13    6    7 ar
    14    6   18 1
    15    7   21 1
    16    8   15 1
    17    8   16 2
    18    9   18 1
    19    9   22 1
    20   10   17 2
    21   10   27 1
    22   11   13 1
    23   11   19 1
    24   11   28 1
    25   11   29 1
    26   12   14 1
    27   12   19 1
    28   12   30 1
    29   12   31 1
    30   13   20 1
    31   13   32 1
    32   13   33 1
    33   14   20 1
    34   14   34 1
    35   14   35 1
    36   15   36 1
    37   15   37 1
    38   15   38 1
    39   16   18 1
    40   17   19 1
