@<TRIPOS>MOLECULE
*****
   43    45     0     0     0
SMALL
NO_CHARGES

@<TRIPOS>ATOM
      1 C1         -5.4178   -3.6308    5.1224 C.ar      1 <0>         0.0000
      2 C2         -5.7233   -4.7333    4.2976 C.ar      1 <0>         0.0000
      3 C3         -4.2307   -2.9221    4.9420 C.ar      1 <0>         0.0000
      4 C4         -4.8682   -5.1439    3.2726 C.ar      1 <0>         0.0000
      5 C5         -3.3642   -3.3395    3.9285 C.ar      1 <0>         0.0000
      6 C6         -3.6885   -4.4148    3.0949 C.ar      1 <0>         0.0000
      7 C7         -2.0624   -2.8194    3.4915 C.2       1 <0>         0.0000
      8 C8         -1.6071   -2.1421    0.5656 C.2       1 <0>         0.0000
      9 C9         -1.0717    0.8845   -0.8112 C.3       1 <0>         0.0000
     10 C10        -1.5943   -0.4919   -1.2337 C.3       1 <0>         0.0000
     11 C11         0.5274   -1.5358   -0.6134 C.3       1 <0>         0.0000
     12 C12         1.1289   -0.1975   -0.1320 C.3       1 <0>         0.0000
     13 C13         0.4588    0.9727   -0.9053 C.3       1 <0>         0.0000
     14 C14         1.0620   -0.0668    1.3968 C.3       1 <0>         0.0000
     15 C15         0.9533    2.3456   -0.4422 C.3       1 <0>         0.0000
     16 C16        -0.8247   -3.1722    1.4136 C.3       1 <0>         0.0000
     17 N1         -2.6955   -4.5929    2.1113 N.pl3     1 <0>         0.0000
     18 N2         -1.6360   -3.7070    2.4841 N.am      1 <0>         0.0000
     19 N3         -0.9277   -1.5471   -0.4620 N.am      1 <0>         0.0000
     20 O1         -1.4199   -1.8381    3.8546 O.2       1 <0>         0.0000
     21 O2         -2.7892   -1.9132    0.8116 O.2       1 <0>         0.0000
     22 O3          0.7552    0.8182   -2.3155 O.3       1 <0>         0.0000
     23 H1         -6.1161   -3.3371    5.9010 H         1 <0>         0.0000
     24 H2         -6.6542   -5.2717    4.4554 H         1 <0>         0.0000
     25 H3         -3.9703   -2.0719    5.5660 H         1 <0>         0.0000
     26 H4         -5.1231   -5.9818    2.6294 H         1 <0>         0.0000
     27 H5         -1.5063    1.6574   -1.4539 H         1 <0>         0.0000
     28 H6         -1.3867    1.0900    0.2163 H         1 <0>         0.0000
     29 H7         -2.6663   -0.5732   -1.0612 H         1 <0>         0.0000
     30 H8         -1.3877   -0.6617   -2.2950 H         1 <0>         0.0000
     31 H9          0.7549   -1.6737   -1.6751 H         1 <0>         0.0000
     32 H10         0.9763   -2.3693   -0.0728 H         1 <0>         0.0000
     33 H11         2.1903   -0.2017   -0.4226 H         1 <0>         0.0000
     34 H12         0.0372   -0.0805    1.7777 H         1 <0>         0.0000
     35 H13         1.5355    0.8555    1.7422 H         1 <0>         0.0000
     36 H14         1.5958   -0.8964    1.8723 H         1 <0>         0.0000
     37 H15         2.0499    2.3956   -0.4567 H         1 <0>         0.0000
     38 H16         0.6215    2.5809    0.5722 H         1 <0>         0.0000
     39 H17         0.5655    3.1152   -1.1162 H         1 <0>         0.0000
     40 H18         0.0339   -2.6998    1.8911 H         1 <0>         0.0000
     41 H19        -0.4578   -3.9903    0.7871 H         1 <0>         0.0000
     42 H20        -2.3387   -5.5484    2.0823 H         1 <0>         0.0000
     43 H21         1.7082    0.9602   -2.4341 H         1 <0>         0.0000
@<TRIPOS>BOND
     1    1    2 ar
     2    1    3 ar
     3    1   23 1
     4    2    4 ar
     5    2   24 1
     6    3    5 ar
     7    3   25 1
     8    4    6 ar
     9    4   26 1
    10    5    6 ar
    11    5    7 1
    12    6   17 1
    13    7   18 am
    14    7   20 2
    15    8   16 1
    16    8   19 am
    17    8   21 2
    18    9   10 1
    19    9   13 1
    20    9   27 1
    21    9   28 1
    22   10   19 1
    23   10   29 1
    24   10   30 1
    25   11   12 1
    26   11   19 1
    27   11   31 1
    28   11   32 1
    29   12   13 1
    30   12   14 1
    31   12   33 1
    32   13   15 1
    33   13   22 1
    34   14   34 1
    35   14   35 1
    36   14   36 1
    37   15   37 1
    38   15   38 1
    39   15   39 1
    40   16   18 1
    41   16   40 1
    42   16   41 1
    43   17   18 1
    44   17   42 1
    45   22   43 1
