@<TRIPOS>MOLECULE
*****
   41    43     0     0     0
SMALL
NO_CHARGES

@<TRIPOS>ATOM
      1 C1         -2.6659   -2.2015   -3.4243 C.ar      1 <0>         0.0000
      2 C2         -1.5350   -2.7998   -2.8550 C.ar      1 <0>         0.0000
      3 C3         -2.5181   -1.0415   -4.1903 C.ar      1 <0>         0.0000
      4 C4         -0.2712   -2.2345   -3.0385 C.ar      1 <0>         0.0000
      5 C5         -1.2501   -0.4776   -4.3721 C.ar      1 <0>         0.0000
      6 C6         -0.1151   -1.0598   -3.7926 C.ar      1 <0>         0.0000
      7 C7          1.8760   -0.2519   -2.5243 C.2       1 <0>         0.0000
      8 C8         -0.7664    1.7895   -1.0527 C.3       1 <0>         0.0000
      9 C9          1.0564   -0.3987    0.4547 C.3       1 <0>         0.0000
     10 C10         0.3838    1.7169   -2.0675 C.3       1 <0>         0.0000
     11 C11         1.8152    0.6994   -0.2969 C.3       1 <0>         0.0000
     12 C12        -2.6854    0.5816    0.0872 C.3       1 <0>         0.0000
     13 C13        -1.3011    0.4224   -0.5854 C.3       1 <0>         0.0000
     14 C14        -0.4725   -0.2635    0.5217 C.3       1 <0>         0.0000
     15 C15         1.2570   -0.4179   -3.9158 C.3       1 <0>         0.0000
     16 N1         -2.5081    1.1769    1.4323 N.pl3     1 <0>         0.0000
     17 N2          1.4032    0.7379   -1.7045 N.am      1 <0>         0.0000
     18 O1          2.7233   -1.0613   -2.1336 O.2       1 <0>         0.0000
     19 O2         -0.1540    1.8274    2.2787 O.2       1 <0>         0.0000
     20 O3         -1.1940   -0.3250    3.1350 O.2       1 <0>         0.0000
     21 S1         -0.9920    0.6352    2.0497 S.o2      1 <0>         0.0000
     22 H1         -3.6497   -2.6396   -3.2782 H         1 <0>         0.0000
     23 H2         -1.6388   -3.7076   -2.2661 H         1 <0>         0.0000
     24 H3         -3.3874   -0.5743   -4.6461 H         1 <0>         0.0000
     25 H4          0.6033   -2.6947   -2.5857 H         1 <0>         0.0000
     26 H5         -1.1462    0.4269   -4.9683 H         1 <0>         0.0000
     27 H6         -0.4636    2.3904   -0.1913 H         1 <0>         0.0000
     28 H7         -1.5820    2.3390   -1.5379 H         1 <0>         0.0000
     29 H8          1.2841   -1.3458   -0.0402 H         1 <0>         0.0000
     30 H9          1.4556   -0.4818    1.4718 H         1 <0>         0.0000
     31 H10        -0.0227    1.4602   -3.0416 H         1 <0>         0.0000
     32 H11         0.8408    2.7119   -2.1578 H         1 <0>         0.0000
     33 H12         1.6525    1.6817    0.1492 H         1 <0>         0.0000
     34 H13         2.8824    0.4776   -0.2534 H         1 <0>         0.0000
     35 H14        -3.3563    1.2212   -0.4903 H         1 <0>         0.0000
     36 H15        -3.1677   -0.3941    0.2009 H         1 <0>         0.0000
     37 H16        -1.3888   -0.2543   -1.4389 H         1 <0>         0.0000
     38 H17        -0.8967   -1.2585    0.6873 H         1 <0>         0.0000
     39 H18         1.9403   -1.0759   -4.4572 H         1 <0>         0.0000
     40 H19         1.1954    0.5232   -4.4683 H         1 <0>         0.0000
     41 H20        -2.4557    2.1943    1.3913 H         1 <0>         0.0000
@<TRIPOS>BOND
     1    1    3 ar
     2    1    2 ar
     3    1   22 1
     4    2    4 ar
     5    2   23 1
     6    3    5 ar
     7    3   24 1
     8    4    6 ar
     9    4   25 1
    10    5    6 ar
    11    5   26 1
    12    6   15 1
    13    7   15 1
    14    7   17 am
    15    7   18 2
    16    8   10 1
    17    8   13 1
    18    8   27 1
    19    8   28 1
    20    9   11 1
    21    9   14 1
    22    9   29 1
    23    9   30 1
    24   10   17 1
    25   10   31 1
    26   10   32 1
    27   11   17 1
    28   11   33 1
    29   11   34 1
    30   12   13 1
    31   12   16 1
    32   12   35 1
    33   12   36 1
    34   13   14 1
    35   13   37 1
    36   14   21 1
    37   14   38 1
    38   15   39 1
    39   15   40 1
    40   16   21 1
    41   16   41 1
    42   19   21 2
    43   20   21 2
