@<TRIPOS>MOLECULE
*****
   34    37     0     0     0
SMALL
NO_CHARGES

@<TRIPOS>ATOM
      1 C1         -1.3395   -4.6190    1.8867 C.ar      1 <0>         0.0000
      2 C2         -0.9273   -4.0807    3.1122 C.ar      1 <0>         0.0000
      3 C3         -0.5081   -5.4747    1.1532 C.ar      1 <0>         0.0000
      4 C4          0.3360   -4.3888    3.6361 C.ar      1 <0>         0.0000
      5 C5         -1.3978   -7.3636   -2.7360 C.ar      1 <0>         0.0000
      6 C6         -1.0722   -8.9449   -5.0867 C.ar      1 <0>         0.0000
      7 C7          0.7533   -5.7852    1.6713 C.ar      1 <0>         0.0000
      8 C8         -0.1929   -8.0929   -2.9408 C.ar      1 <0>         0.0000
      9 C9         -2.3774   -7.4439   -3.6932 C.ar      1 <0>         0.0000
     10 C10        -2.2207   -8.2189   -4.8481 C.ar      1 <0>         0.0000
     11 C11         1.1422   -5.2364    2.8956 C.ar      1 <0>         0.0000
     12 C12        -0.0612   -8.8651   -4.1106 C.ar      1 <0>         0.0000
     13 C13         1.8566   -6.6470    1.1529 C.2       1 <0>         0.0000
     14 C14         0.8736   -8.0287   -1.9458 C.2       1 <0>         0.0000
     15 C15        -4.1886   -7.1532   -4.9863 C.3       1 <0>         0.0000
     16 N1          2.9431   -6.7526    1.8693 N.2       1 <0>         0.0000
     17 N2          0.7530   -7.3200   -0.8746 N.2       1 <0>         0.0000
     18 N3          1.8116   -7.3371   -0.0210 N.pl3     1 <0>         0.0000
     19 O1          3.7558   -4.7170    3.2410 O.2       1 <0>         0.0000
     20 O2          2.7682   -6.7074    4.4490 O.2       1 <0>         0.0000
     21 O3         -3.6205   -6.8549   -3.7004 O.3       1 <0>         0.0000
     22 O4         -3.3495   -8.1416   -5.6182 O.3       1 <0>         0.0000
     23 S1          2.8021   -5.8250    3.2830 S.o2      1 <0>         0.0000
     24 Cl1         1.4017   -9.7900   -4.4292 Cl        1 <0>         0.0000
     25 H1         -2.3222   -4.3694    1.4964 H         1 <0>         0.0000
     26 H2         -1.5908   -3.4192    3.6623 H         1 <0>         0.0000
     27 H3         -0.8275   -5.8896    0.2078 H         1 <0>         0.0000
     28 H4          0.6714   -3.9806    4.5847 H         1 <0>         0.0000
     29 H5         -1.5214   -6.7677   -1.8402 H         1 <0>         0.0000
     30 H6         -0.9491   -9.5487   -5.9783 H         1 <0>         0.0000
     31 H7          1.7817   -8.6051   -2.1422 H         1 <0>         0.0000
     32 H8         -5.1910   -7.5658   -4.8539 H         1 <0>         0.0000
     33 H9         -4.1987   -6.2456   -5.6017 H         1 <0>         0.0000
     34 H10         2.6462   -7.8854   -0.2390 H         1 <0>         0.0000
@<TRIPOS>BOND
     1    1    2 ar
     2    1    3 ar
     3    1   25 1
     4    2    4 ar
     5    2   26 1
     6    3    7 ar
     7    3   27 1
     8    4   11 ar
     9    4   28 1
    10    5    8 ar
    11    5    9 ar
    12    5   29 1
    13    6   10 ar
    14    6   12 ar
    15    6   30 1
    16    7   11 ar
    17    7   13 1
    18    8   12 ar
    19    8   14 1
    20    9   10 ar
    21    9   21 1
    22   10   22 1
    23   11   23 1
    24   12   24 1
    25   13   16 2
    26   13   18 1
    27   14   17 2
    28   14   31 1
    29   15   21 1
    30   15   22 1
    31   15   32 1
    32   15   33 1
    33   16   23 1
    34   17   18 1
    35   18   34 1
    36   19   23 2
    37   20   23 2
