@<TRIPOS>MOLECULE
*****
   47    50     0     0     0
SMALL
NO_CHARGES

@<TRIPOS>ATOM
      1 C1          7.6007   -3.6994    2.4147 C.1       1 <0>         0.0000
      2 C2         10.1027   -1.2389    1.2075 C.ar      1 <0>         0.0000
      3 C3          9.2967   -0.3482    0.4864 C.ar      1 <0>         0.0000
      4 C4          9.5112   -2.3330    1.8306 C.ar      1 <0>         0.0000
      5 C5          7.9233   -0.5513    0.3922 C.ar      1 <0>         0.0000
      6 C6          4.9231   -2.7305    1.3229 C.2       1 <0>         0.0000
      7 C7          3.6521   -2.2999    0.8288 C.2       1 <0>         0.0000
      8 C8          8.1234   -2.5470    1.7410 C.ar      1 <0>         0.0000
      9 C9          7.2950   -1.6519    1.0129 C.ar      1 <0>         0.0000
     10 C10         5.8562   -1.8179    0.8818 C.2       1 <0>         0.0000
     11 C11         3.8754   -1.1534    0.1168 C.2       1 <0>         0.0000
     12 C12        -0.2149    2.0331    0.4397 C.3       1 <0>         0.0000
     13 C13         0.2324    1.6495   -0.9957 C.3       1 <0>         0.0000
     14 C14        -0.9572   -0.2226    1.3834 C.3       1 <0>         0.0000
     15 C15         1.5246    0.3926    1.1681 C.3       1 <0>         0.0000
     16 C16        -0.6558   -0.7551   -0.9908 C.3       1 <0>         0.0000
     17 C17         0.1058    0.9002    1.4311 C.3       1 <0>         0.0000
     18 C18         0.5815    0.1529   -1.1065 C.3       1 <0>         0.0000
     19 C19        -2.7257   -1.2701    0.1173 C.3       1 <0>         0.0000
     20 C20         2.9809   -0.2414   -0.6674 C.3       1 <0>         0.0000
     21 N1          7.2089   -4.6447    2.9739 N.1       1 <0>         0.0000
     22 N2         -1.5827   -0.3685    0.0693 N.3       1 <0>         0.0000
     23 N3          1.6247   -0.2607   -0.1450 N.3       1 <0>         0.0000
     24 O1          5.2062   -0.8444    0.1417 O.3       1 <0>         0.0000
     25 H1         11.1745   -1.0812    1.2815 H         1 <0>         0.0000
     26 H2          9.7439    0.5114   -0.0059 H         1 <0>         0.0000
     27 H3         10.1118   -3.0390    2.3960 H         1 <0>         0.0000
     28 H4          7.3122    0.1460   -0.1689 H         1 <0>         0.0000
     29 H5          5.1149   -3.6035    1.9278 H         1 <0>         0.0000
     30 H6          2.6892   -2.7677    0.9792 H         1 <0>         0.0000
     31 H7          0.3081    2.9415    0.7598 H         1 <0>         0.0000
     32 H8         -1.2860    2.2469    0.4604 H         1 <0>         0.0000
     33 H9         -0.5478    1.8956   -1.7230 H         1 <0>         0.0000
     34 H10         1.1208    2.2260   -1.2795 H         1 <0>         0.0000
     35 H11        -0.5100   -1.1709    1.7401 H         1 <0>         0.0000
     36 H12        -1.7611    0.0308    2.0834 H         1 <0>         0.0000
     37 H13         2.2154    1.2539    1.2319 H         1 <0>         0.0000
     38 H14         1.8328   -0.3126    1.9485 H         1 <0>         0.0000
     39 H15        -1.2120   -0.7099   -1.9359 H         1 <0>         0.0000
     40 H16        -0.2922   -1.7926   -0.8693 H         1 <0>         0.0000
     41 H17         0.1022    1.3023    2.4505 H         1 <0>         0.0000
     42 H18         0.9887   -0.0352   -2.1050 H         1 <0>         0.0000
     43 H19        -3.2199   -1.2925   -0.8598 H         1 <0>         0.0000
     44 H20        -3.4510   -0.9126    0.8556 H         1 <0>         0.0000
     45 H21        -2.4496   -2.3088    0.3824 H         1 <0>         0.0000
     46 H22         3.4363    0.7678   -0.6706 H         1 <0>         0.0000
     47 H23         2.9620   -0.5815   -1.7098 H         1 <0>         0.0000
@<TRIPOS>BOND
     1    1    8 1
     2    1   21 3
     3    2    3 ar
     4    2    4 ar
     5    2   25 1
     6    3    5 ar
     7    3   26 1
     8    4    8 ar
     9    4   27 1
    10    5    9 ar
    11    5   28 1
    12    6    7 1
    13    6   10 2
    14    6   29 1
    15    7   11 2
    16    7   30 1
    17    8    9 ar
    18    9   10 1
    19   10   24 1
    20   11   20 1
    21   11   24 1
    22   12   13 1
    23   12   17 1
    24   12   31 1
    25   12   32 1
    26   13   18 1
    27   13   33 1
    28   13   34 1
    29   14   17 1
    30   14   22 1
    31   14   35 1
    32   14   36 1
    33   15   17 1
    34   15   23 1
    35   15   37 1
    36   15   38 1
    37   16   18 1
    38   16   22 1
    39   16   39 1
    40   16   40 1
    41   17   41 1
    42   18   23 1
    43   18   42 1
    44   19   22 1
    45   19   43 1
    46   19   44 1
    47   19   45 1
    48   20   23 1
    49   20   46 1
    50   20   47 1
