@<TRIPOS>MOLECULE
*****
   40    41     0     0     0
SMALL
NO_CHARGES

@<TRIPOS>ATOM
      1 C1          3.7421   -0.3936    1.1503 C.ar      1 <0>         0.0000
      2 C2          3.1291    0.8510    1.3305 C.ar      1 <0>         0.0000
      3 C3          3.1940   -1.3037    0.2416 C.ar      1 <0>         0.0000
      4 C4          1.9835    1.1824    0.6049 C.ar      1 <0>         0.0000
      5 C5          2.0454   -0.9679   -0.4813 C.ar      1 <0>         0.0000
      6 C6         -5.5399    0.9380    0.8584 C.ar      1 <0>         0.0000
      7 C7         -4.8938   -1.0339    2.1671 C.ar      1 <0>         0.0000
      8 C8         -4.2165    1.3183    0.7840 C.ar      1 <0>         0.0000
      9 C9         -3.5714   -0.6492    2.0882 C.ar      1 <0>         0.0000
     10 C10         1.4284    0.2791   -0.3112 C.ar      1 <0>         0.0000
     11 C11        -5.9720   -0.2714    1.5497 C.ar      1 <0>         0.0000
     12 C12        -3.2108    0.5354    1.4014 C.ar      1 <0>         0.0000
     13 C13         1.4808    0.6383   -3.2756 C.2       1 <0>         0.0000
     14 C14         3.0083    2.4034   -3.6334 C.3       1 <0>         0.0000
     15 C15         0.2153    0.2258   -2.5569 C.3       1 <0>         0.0000
     16 C16        -1.1105    0.1038   -0.4376 C.3       1 <0>         0.0000
     17 C17         0.1713    0.6621   -1.0747 C.3       1 <0>         0.0000
     18 O1         -7.1824   -0.6274    1.6082 O.3       1 <0>         0.0000
     19 O2          2.1621   -0.0877   -3.9773 O.2       1 <0>         0.0000
     20 O3         -1.3660    2.3736    0.8809 O.2       1 <0>         0.0000
     21 O4         -0.6953    0.2851    2.1968 O.2       1 <0>         0.0000
     22 O5          1.7734    1.9434   -3.0582 O.3       1 <0>         0.0000
     23 S1         -1.5355    0.9224    1.1577 S.o2      1 <0>         0.0000
     24 H1          4.6332   -0.6543    1.7171 H         1 <0>         0.0000
     25 H2          3.5354    1.5603    2.0478 H         1 <0>         0.0000
     26 H3          3.6594   -2.2757    0.0939 H         1 <0>         0.0000
     27 H4          1.4897    2.1360    0.7695 H         1 <0>         0.0000
     28 H5          1.6370   -1.6883   -1.1855 H         1 <0>         0.0000
     29 H6         -6.3160    1.5479    0.4000 H         1 <0>         0.0000
     30 H7         -5.1744   -1.9351    2.7088 H         1 <0>         0.0000
     31 H8         -3.9291    2.2334    0.2699 H         1 <0>         0.0000
     32 H9         -2.7906   -1.2371    2.5661 H         1 <0>         0.0000
     33 H10         3.0916    3.4515   -3.3445 H         1 <0>         0.0000
     34 H11         2.9881    2.3031   -4.7219 H         1 <0>         0.0000
     35 H12         3.8473    1.8280   -3.2344 H         1 <0>         0.0000
     36 H13         0.1228   -0.8560   -2.6707 H         1 <0>         0.0000
     37 H14        -0.6335    0.6817   -3.0805 H         1 <0>         0.0000
     38 H15        -1.9730    0.2858   -1.0854 H         1 <0>         0.0000
     39 H16        -1.0439   -0.9669   -0.2272 H         1 <0>         0.0000
     40 H17         0.0867    1.7508   -1.0553 H         1 <0>         0.0000
@<TRIPOS>BOND
     1    1    3 ar
     2    1    2 ar
     3    1   24 1
     4    2    4 ar
     5    2   25 1
     6    3    5 ar
     7    3   26 1
     8    4   10 ar
     9    4   27 1
    10    5   10 ar
    11    5   28 1
    12    6    8 ar
    13    6   11 ar
    14    6   29 1
    15    7    9 ar
    16    7   11 ar
    17    7   30 1
    18    8   12 ar
    19    8   31 1
    20    9   12 ar
    21    9   32 1
    22   10   17 1
    23   11   18 1
    24   12   23 1
    25   13   15 1
    26   13   19 2
    27   13   22 1
    28   14   22 1
    29   14   33 1
    30   14   34 1
    31   14   35 1
    32   15   17 1
    33   15   36 1
    34   15   37 1
    35   16   17 1
    36   16   23 1
    37   16   38 1
    38   16   39 1
    39   17   40 1
    40   20   23 2
    41   21   23 2
