@<TRIPOS>MOLECULE
*****
   23    23     0     0     0
SMALL
NO_CHARGES

@<TRIPOS>ATOM
      1 C1          5.2261   -0.1415    3.3631 C.1       1 <0>         0.0000
      2 C2          2.0124   -1.3775   -0.2543 C.ar      1 <0>         0.0000
      3 C3          1.0030   -0.6279    0.3468 C.ar      1 <0>         0.0000
      4 C4          2.0798   -0.9826    2.5043 C.ar      1 <0>         0.0000
      5 C5          3.1100   -1.7208    1.9109 C.ar      1 <0>         0.0000
      6 C6          3.0542   -1.8894    0.5182 C.ar      1 <0>         0.0000
      7 C7          1.0648   -0.4405    1.7232 C.ar      1 <0>         0.0000
      8 C8          5.4749   -1.4889    2.8427 C.3       1 <0>         0.0000
      9 C9          4.1750   -2.3340    2.8097 C.3       1 <0>         0.0000
     10 N1          4.9913    0.9151    3.7881 N.1       1 <0>         0.0000
     11 N2          4.5025   -3.6835    2.3453 N.3       1 <0>         0.0000
     12 N3          4.1086   -2.5964   -0.2376 N.pl3     1 <0>         0.0000
     13 O1          5.2562   -2.1473   -0.1748 O.3       1 <0>         0.0000
     14 O2          3.7543   -3.5432   -0.9408 O.2       1 <0>         0.0000
     15 F1          0.0929    0.2748    2.3305 F         1 <0>         0.0000
     16 H1          2.0035   -1.5602   -1.3238 H         1 <0>         0.0000
     17 H2          0.1868   -0.2036   -0.2285 H         1 <0>         0.0000
     18 H3          2.0624   -0.8232    3.5780 H         1 <0>         0.0000
     19 H4          5.9015   -1.4250    1.8403 H         1 <0>         0.0000
     20 H5          6.2064   -1.9782    3.4961 H         1 <0>         0.0000
     21 H6          3.7658   -2.3204    3.8307 H         1 <0>         0.0000
     22 H7          3.6982   -4.2972    2.4598 H         1 <0>         0.0000
     23 H8          5.2655   -4.0784    2.8917 H         1 <0>         0.0000
@<TRIPOS>BOND
     1    1    8 1
     2    1   10 3
     3    2    3 ar
     4    2    6 ar
     5    2   16 1
     6    3    7 ar
     7    3   17 1
     8    4    5 ar
     9    4    7 ar
    10    4   18 1
    11    5    6 ar
    12    5    9 1
    13    6   12 1
    14    7   15 1
    15    8    9 1
    16    8   19 1
    17    8   20 1
    18    9   11 1
    19    9   21 1
    20   11   22 1
    21   11   23 1
    22   12   13 1
    23   12   14 2
