@<TRIPOS>MOLECULE
*****
   25    25     0     0     0
SMALL
NO_CHARGES

@<TRIPOS>ATOM
      1 C1          1.4817    8.9003    1.1350 C.2       1 <0>         0.0000
      2 C2          0.6272    7.0022    0.0572 C.2       1 <0>         0.0000
      3 C3          1.7824   10.0925    1.9941 C.2       1 <0>         0.0000
      4 C4          0.7814    0.4161   -0.0445 C.3       1 <0>         0.0000
      5 C5          1.2967    1.8269    0.2601 C.3       1 <0>         0.0000
      6 C6          0.3534    2.9195   -0.2636 C.3       1 <0>         0.0000
      7 C7          0.8851    4.3175    0.0402 C.3       1 <0>         0.0000
      8 N1          2.2474    8.5028    0.1485 N.2       1 <0>         0.0000
      9 N2          1.7458    7.3991   -0.4865 N.2       1 <0>         0.0000
     10 N3          2.9408   10.7232    1.6697 N.am      1 <0>         0.0000
     11 O1          1.0225   10.4248    2.8994 O.2       1 <0>         0.0000
     12 O2         -1.5369    5.4995    0.3789 O.2       1 <0>         0.0000
     13 S1          0.0502    7.9491    1.3961 S.3       1 <0>         0.0000
     14 S2         -0.3360    5.5803   -0.5423 S.o       1 <0>         0.0000
     15 H1          0.6815    0.2558   -1.1239 H         1 <0>         0.0000
     16 H2          1.4640   -0.3461    0.3449 H         1 <0>         0.0000
     17 H3         -0.2017    0.2487    0.4093 H         1 <0>         0.0000
     18 H4          1.4206    1.9472    1.3437 H         1 <0>         0.0000
     19 H5          2.2922    1.9598   -0.1822 H         1 <0>         0.0000
     20 H6          0.2214    2.8011   -1.3467 H         1 <0>         0.0000
     21 H7         -0.6348    2.8026    0.1947 H         1 <0>         0.0000
     22 H8          1.0094    4.4829    1.1149 H         1 <0>         0.0000
     23 H9          1.8244    4.5367   -0.4772 H         1 <0>         0.0000
     24 H10         3.1977   11.5584    2.1792 H         1 <0>         0.0000
     25 H11         3.4945   10.4073    0.8827 H         1 <0>         0.0000
@<TRIPOS>BOND
     1    1    3 1
     2    1    8 2
     3    1   13 1
     4    2    9 2
     5    2   13 1
     6    2   14 1
     7    3   10 am
     8    3   11 2
     9    4    5 1
    10    4   15 1
    11    4   16 1
    12    4   17 1
    13    5    6 1
    14    5   18 1
    15    5   19 1
    16    6    7 1
    17    6   20 1
    18    6   21 1
    19    7   14 1
    20    7   22 1
    21    7   23 1
    22    8    9 1
    23   10   24 1
    24   10   25 1
    25   12   14 2
