@<TRIPOS>MOLECULE
*****
   46    47     0     0     0
SMALL
NO_CHARGES

@<TRIPOS>ATOM
      1 C1          0.2266   -3.4272   -4.5709 C.ar      1 <0>         0.0000
      2 C2         -0.8710   -2.5647   -4.6454 C.ar      1 <0>         0.0000
      3 C3          1.3012   -3.1045   -3.7341 C.ar      1 <0>         0.0000
      4 C4         -0.8901   -1.3906   -3.8851 C.ar      1 <0>         0.0000
      5 C5          1.2809   -1.9295   -2.9789 C.ar      1 <0>         0.0000
      6 C6          0.1823   -1.0574   -3.0452 C.ar      1 <0>         0.0000
      7 C7         -0.2045    1.3246    0.0011 C.2       1 <0>         0.0000
      8 C8         -1.0993   -1.0208   -0.2812 C.3       1 <0>         0.0000
      9 C9         -0.5540   -1.5338    1.0464 C.3       1 <0>         0.0000
     10 C10        -0.0041   -0.0395   -0.6963 C.3       1 <0>         0.0000
     11 C11         2.1474    4.0985    0.2376 C.3       1 <0>         0.0000
     12 C12         1.4060   -2.4689    3.0155 C.3       1 <0>         0.0000
     13 C13         3.2252   -1.7135    1.4615 C.3       1 <0>         0.0000
     14 C14         1.7171   -0.0052    2.5258 C.3       1 <0>         0.0000
     15 C15         0.1421    0.2044   -2.2160 C.3       1 <0>         0.0000
     16 C16         0.8241    3.4053    0.5022 C.3       1 <0>         0.0000
     17 C17         1.7941   -1.4323    1.9478 C.3       1 <0>         0.0000
     18 N1          0.8911   -1.6656    0.7900 N.3       1 <0>         0.0000
     19 O1         -1.2005    1.6580    0.6179 O.2       1 <0>         0.0000
     20 O2          1.2113   -0.6295   -0.2208 O.3       1 <0>         0.0000
     21 O3          0.8734    2.1142   -0.1592 O.3       1 <0>         0.0000
     22 H1          0.2455   -4.3411   -5.1594 H         1 <0>         0.0000
     23 H2         -1.7108   -2.8041   -5.2932 H         1 <0>         0.0000
     24 H3          2.1576   -3.7712   -3.6689 H         1 <0>         0.0000
     25 H4         -1.7497   -0.7258   -3.9450 H         1 <0>         0.0000
     26 H5          2.1065   -1.6906   -2.3166 H         1 <0>         0.0000
     27 H6         -1.1581   -1.8290   -1.0118 H         1 <0>         0.0000
     28 H7         -2.0719   -0.5400   -0.1780 H         1 <0>         0.0000
     29 H8         -0.7954   -0.8267    1.8503 H         1 <0>         0.0000
     30 H9         -0.9529   -2.5162    1.3091 H         1 <0>         0.0000
     31 H10         2.9806    3.5115    0.6348 H         1 <0>         0.0000
     32 H11         2.3061    4.2429   -0.8352 H         1 <0>         0.0000
     33 H12         2.1531    5.0800    0.7226 H         1 <0>         0.0000
     34 H13         0.4255   -2.2594    3.4540 H         1 <0>         0.0000
     35 H14         1.3876   -3.4755    2.5861 H         1 <0>         0.0000
     36 H15         2.1417   -2.4540    3.8253 H         1 <0>         0.0000
     37 H16         3.5101   -1.0096    0.6759 H         1 <0>         0.0000
     38 H17         3.2944   -2.7278    1.0568 H         1 <0>         0.0000
     39 H18         3.9357   -1.6155    2.2892 H         1 <0>         0.0000
     40 H19         2.0233    0.7266    1.7750 H         1 <0>         0.0000
     41 H20         0.7108    0.2502    2.8719 H         1 <0>         0.0000
     42 H21         2.3899    0.0825    3.3851 H         1 <0>         0.0000
     43 H22         1.0549    0.7900   -2.3588 H         1 <0>         0.0000
     44 H23        -0.6948    0.8339   -2.5381 H         1 <0>         0.0000
     45 H24        -0.0257    3.9691    0.1067 H         1 <0>         0.0000
     46 H25         0.6512    3.2407    1.5695 H         1 <0>         0.0000
@<TRIPOS>BOND
     1    1    3 ar
     2    1    2 ar
     3    1   22 1
     4    2    4 ar
     5    2   23 1
     6    3    5 ar
     7    3   24 1
     8    4    6 ar
     9    4   25 1
    10    5    6 ar
    11    5   26 1
    12    6   15 1
    13    7   10 1
    14    7   19 2
    15    7   21 1
    16    8    9 1
    17    8   10 1
    18    8   27 1
    19    8   28 1
    20    9   18 1
    21    9   29 1
    22    9   30 1
    23   10   15 1
    24   10   20 1
    25   11   16 1
    26   11   31 1
    27   11   32 1
    28   11   33 1
    29   12   17 1
    30   12   34 1
    31   12   35 1
    32   12   36 1
    33   13   17 1
    34   13   37 1
    35   13   38 1
    36   13   39 1
    37   14   17 1
    38   14   40 1
    39   14   41 1
    40   14   42 1
    41   15   43 1
    42   15   44 1
    43   16   21 1
    44   16   45 1
    45   16   46 1
    46   17   18 1
    47   18   20 1
