@<TRIPOS>MOLECULE
*****
   29    30     0     0     0
SMALL
NO_CHARGES

@<TRIPOS>ATOM
      1 C1          2.1406   -6.2151    0.5344 C.ar      1 <0>         0.0000
      2 C2          2.7554   -6.4219    1.7706 C.ar      1 <0>         0.0000
      3 C3          0.8604   -5.6596    0.4763 C.ar      1 <0>         0.0000
      4 C4          2.0906   -6.0729    2.9493 C.ar      1 <0>         0.0000
      5 C5          0.1699   -5.2964    1.6416 C.ar      1 <0>         0.0000
      6 C6          0.8169   -5.5152    2.8700 C.ar      1 <0>         0.0000
      7 C7         -1.7084   -2.5564    2.8494 C.cat     1 <0>         0.0000
      8 C8         -2.8087   -1.9886    4.7891 C.3       1 <0>         0.0000
      9 C9         -2.3398   -0.7317    4.0394 C.3       1 <0>         0.0000
     10 C10        -1.9771   -4.8582    0.2710 C.3       1 <0>         0.0000
     11 C11        -1.2179   -4.6785    1.5868 C.3       1 <0>         0.0000
     12 N1         -2.5865   -3.0160    3.7519 N.pl3     1 <0>         0.0000
     13 N2         -1.1048   -3.2229    1.8892 N.pl3     1 <0>         0.0000
     14 O1         -1.4729   -1.2594    2.9719 O.3       1 <0>         0.0000
     15 Cl1         0.0195   -5.0916    4.3912 Cl        1 <0>         0.0000
     16 H1          2.6511   -6.4904   -0.3833 H         1 <0>         0.0000
     17 H2          3.7484   -6.8580    1.8260 H         1 <0>         0.0000
     18 H3          0.3928   -5.5201   -0.4925 H         1 <0>         0.0000
     19 H4          2.5531   -6.2335    3.9176 H         1 <0>         0.0000
     20 H5         -2.2021   -2.2013    5.6741 H         1 <0>         0.0000
     21 H6         -3.8620   -1.9389    5.0665 H         1 <0>         0.0000
     22 H7         -3.1545   -0.1959    3.5502 H         1 <0>         0.0000
     23 H8         -1.7358   -0.0509    4.6357 H         1 <0>         0.0000
     24 H9         -1.4824   -4.3482   -0.5598 H         1 <0>         0.0000
     25 H10        -2.0581   -5.9201    0.0271 H         1 <0>         0.0000
     26 H11        -2.9853   -4.4467    0.3648 H         1 <0>         0.0000
     27 H12        -1.8162   -5.1173    2.3871 H         1 <0>         0.0000
     28 H13        -2.6340   -4.0039    3.9738 H         1 <0>         0.0000
     29 H14        -0.4773   -2.6759    1.3049 H         1 <0>         0.0000
@<TRIPOS>BOND
     1    1    2 ar
     2    1    3 ar
     3    1   16 1
     4    2    4 ar
     5    2   17 1
     6    3    5 ar
     7    3   18 1
     8    4    6 ar
     9    4   19 1
    10    5    6 ar
    11    5   11 1
    12    6   15 1
    13    7   12 2
    14    7   13 1
    15    7   14 1
    16    8    9 1
    17    8   12 1
    18    8   20 1
    19    8   21 1
    20    9   14 1
    21    9   22 1
    22    9   23 1
    23   10   11 1
    24   10   24 1
    25   10   25 1
    26   10   26 1
    27   11   13 1
    28   11   27 1
    29   12   28 1
    30   13   29 1
