@<TRIPOS>MOLECULE
*****
   42    43     0     0     0
SMALL
NO_CHARGES

@<TRIPOS>ATOM
      1 C1          5.7356   -0.0931    5.6255 C.ar      1 <0>         0.0000
      2 C2          5.1947    0.5383    4.4980 C.ar      1 <0>         0.0000
      3 C3          3.6109   -1.1241    6.0637 C.ar      1 <0>         0.0000
      4 C4          4.9548   -0.9307    6.4237 C.ar      1 <0>         0.0000
      5 C5          3.8581    0.3350    4.1409 C.ar      1 <0>         0.0000
      6 C6          3.0603   -0.5109    4.9419 C.ar      1 <0>         0.0000
      7 C7         -0.1802   -1.0406    2.4582 C.3       1 <0>         0.0000
      8 C8          1.1187   -1.4106    1.6865 C.3       1 <0>         0.0000
      9 C9         -0.1291   -1.8711    3.7567 C.3       1 <0>         0.0000
     10 C10         2.0026   -2.1954    2.6922 C.3       1 <0>         0.0000
     11 C11         1.3631   -1.9604    4.0671 C.3       1 <0>         0.0000
     12 C12         4.7645   -1.2365    8.9164 C.3       1 <0>         0.0000
     13 C13         4.0194    1.7545    2.2293 C.3       1 <0>         0.0000
     14 C14         5.4931   -3.1742    7.4034 C.3       1 <0>         0.0000
     15 C15         5.5283   -1.6363    7.6441 C.3       1 <0>         0.0000
     16 N1          6.1392   -4.0192    8.4076 N.3       1 <0>         0.0000
     17 O1          6.9015   -1.2195    7.7720 O.3       1 <0>         0.0000
     18 O2          1.7313   -0.6738    4.6277 O.3       1 <0>         0.0000
     19 O3          3.2432    0.8938    3.0536 O.3       1 <0>         0.0000
     20 H1          6.7735    0.0737    5.8876 H         1 <0>         0.0000
     21 H2          5.8312    1.1848    3.9040 H         1 <0>         0.0000
     22 H3          2.9535   -1.7505    6.6606 H         1 <0>         0.0000
     23 H4         -0.1731    0.0229    2.7103 H         1 <0>         0.0000
     24 H5         -1.0863   -1.2372    1.8771 H         1 <0>         0.0000
     25 H6          0.9015   -2.0201    0.8037 H         1 <0>         0.0000
     26 H7          1.6320   -0.5099    1.3440 H         1 <0>         0.0000
     27 H8         -0.6913   -1.4281    4.5833 H         1 <0>         0.0000
     28 H9         -0.5119   -2.8847    3.5871 H         1 <0>         0.0000
     29 H10         1.9733   -3.2711    2.4824 H         1 <0>         0.0000
     30 H11         3.0523   -1.8932    2.6715 H         1 <0>         0.0000
     31 H12         1.6140   -2.7460    4.7909 H         1 <0>         0.0000
     32 H13         5.1920   -1.7256    9.8015 H         1 <0>         0.0000
     33 H14         3.7089   -1.5162    8.8601 H         1 <0>         0.0000
     34 H15         4.8269   -0.1548    9.0608 H         1 <0>         0.0000
     35 H16         3.3506    2.0885    1.4346 H         1 <0>         0.0000
     36 H17         4.8734    1.2260    1.7868 H         1 <0>         0.0000
     37 H18         4.3816    2.6263    2.7885 H         1 <0>         0.0000
     38 H19         5.9797   -3.3655    6.4424 H         1 <0>         0.0000
     39 H20         4.4520   -3.4985    7.3031 H         1 <0>         0.0000
     40 H21         5.7378   -3.8851    9.3329 H         1 <0>         0.0000
     41 H22         7.1366   -3.8243    8.4597 H         1 <0>         0.0000
     42 H23         7.2158   -1.5277    8.6362 H         1 <0>         0.0000
@<TRIPOS>BOND
     1    1    2 ar
     2    1    4 ar
     3    1   20 1
     4    2    5 ar
     5    2   21 1
     6    3    4 ar
     7    3    6 ar
     8    3   22 1
     9    4   15 1
    10    5    6 ar
    11    5   19 1
    12    6   18 1
    13    7    8 1
    14    7    9 1
    15    7   23 1
    16    7   24 1
    17    8   10 1
    18    8   25 1
    19    8   26 1
    20    9   11 1
    21    9   27 1
    22    9   28 1
    23   10   11 1
    24   10   29 1
    25   10   30 1
    26   11   18 1
    27   11   31 1
    28   12   15 1
    29   12   32 1
    30   12   33 1
    31   12   34 1
    32   13   19 1
    33   13   35 1
    34   13   36 1
    35   13   37 1
    36   14   15 1
    37   14   16 1
    38   14   38 1
    39   14   39 1
    40   15   17 1
    41   16   40 1
    42   16   41 1
    43   17   42 1
