@<TRIPOS>MOLECULE
*****
   29    30     0     0     0
SMALL
NO_CHARGES

@<TRIPOS>ATOM
      1 C1         -0.5201   -1.7395    0.4669 C.ar      1 <0>         0.0000
      2 C2          3.8156   -4.2606   -0.2403 C.ar      1 <0>         0.0000
      3 C3         -0.0865   -2.9894    0.8551 C.ar      1 <0>         0.0000
      4 C4          3.3810   -3.0124   -0.6247 C.ar      1 <0>         0.0000
      5 C5          0.3142   -0.8816   -0.2894 C.ar      1 <0>         0.0000
      6 C6          2.9797   -5.1286    0.5079 C.ar      1 <0>         0.0000
      7 C7          2.0760   -2.5773   -0.2681 C.ar      1 <0>         0.0000
      8 C8          1.2159   -3.4287    0.4928 C.ar      1 <0>         0.0000
      9 C9          1.5842   -1.2917   -0.6468 C.ar      1 <0>         0.0000
     10 C10         1.7123   -4.7158    0.8657 C.ar      1 <0>         0.0000
     11 C11         1.4251   -7.8570    1.2941 C.2       1 <0>         0.0000
     12 C12         0.3100   -6.9905    3.3652 C.3       1 <0>         0.0000
     13 C13         1.3022   -6.6618    2.2521 C.3       1 <0>         0.0000
     14 O1          2.0950   -8.8296    1.5564 O.2       1 <0>         0.0000
     15 O2          2.4415   -0.5052   -1.3764 O.3       1 <0>         0.0000
     16 O3          0.6883   -7.7689    0.1647 O.3       1 <0>         0.0000
     17 O4          0.8132   -5.4958    1.5764 O.3       1 <0>         0.0000
     18 H1         -1.5141   -1.3978    0.7425 H         1 <0>         0.0000
     19 H2          4.8096   -4.6022   -0.5147 H         1 <0>         0.0000
     20 H3         -0.7244   -3.6423    1.4391 H         1 <0>         0.0000
     21 H4          4.0191   -2.3519   -1.2006 H         1 <0>         0.0000
     22 H5         -0.0467    0.1019   -0.5862 H         1 <0>         0.0000
     23 H6          3.3523   -6.1120    0.7720 H         1 <0>         0.0000
     24 H7         -0.6900   -7.1587    2.9547 H         1 <0>         0.0000
     25 H8          0.2635   -6.1589    4.0727 H         1 <0>         0.0000
     26 H9          0.6320   -7.8929    3.8901 H         1 <0>         0.0000
     27 H10         2.2919   -6.4693    2.6739 H         1 <0>         0.0000
     28 H11         2.0031    0.3376   -1.5746 H         1 <0>         0.0000
     29 H12         0.2681   -6.8859    0.1461 H         1 <0>         0.0000
@<TRIPOS>BOND
     1    1    3 ar
     2    1    5 ar
     3    1   18 1
     4    2    4 ar
     5    2    6 ar
     6    2   19 1
     7    3    8 ar
     8    3   20 1
     9    4    7 ar
    10    4   21 1
    11    5    9 ar
    12    5   22 1
    13    6   10 ar
    14    6   23 1
    15    7    8 ar
    16    7    9 ar
    17    8   10 ar
    18    9   15 1
    19   10   17 1
    20   11   13 1
    21   11   14 2
    22   11   16 1
    23   12   13 1
    24   12   24 1
    25   12   25 1
    26   12   26 1
    27   13   17 1
    28   13   27 1
    29   15   28 1
    30   16   29 1
