@<TRIPOS>MOLECULE
*****
   18    18     0     0     0
SMALL
NO_CHARGES

@<TRIPOS>ATOM
      1 C1          1.3879   -0.0684    1.6522 C.ar      1 <0>         0.0000
      2 C2          0.2265   -0.4197    0.9733 C.ar      1 <0>         0.0000
      3 C3          1.6520   -0.6227    2.8997 C.ar      1 <0>         0.0000
      4 C4         -0.6317   -1.3224    1.5803 C.ar      1 <0>         0.0000
      5 C5          0.7299   -1.5161    3.4206 C.ar      1 <0>         0.0000
      6 C6          0.2353   -2.9831    5.4024 C.2       1 <0>         0.0000
      7 C7          0.8843   -3.3361    6.7172 C.3       1 <0>         0.0000
      8 N1         -0.4092   -1.8816    2.7908 N.ar      1 <0>         0.0000
      9 N2          1.0053   -2.0685    4.6769 N.am      1 <0>         0.0000
     10 O1         -0.8372   -3.4821    5.0774 O.2       1 <0>         0.0000
     11 H1          2.0854    0.6363    1.2098 H         1 <0>         0.0000
     12 H2          0.0007   -0.0006   -0.0005 H         1 <0>         0.0000
     13 H3          2.5564   -0.3545    3.4359 H         1 <0>         0.0000
     14 H4         -1.5508   -1.6300    1.0925 H         1 <0>         0.0000
     15 H5          0.5468   -2.6442    7.4941 H         1 <0>         0.0000
     16 H6          1.9716   -3.2622    6.6249 H         1 <0>         0.0000
     17 H7          0.6226   -4.3600    6.9997 H         1 <0>         0.0000
     18 H8          1.8783   -1.7675    5.1207 H         1 <0>         0.0000
@<TRIPOS>BOND
     1    1    2 ar
     2    1    3 ar
     3    1   11 1
     4    2    4 ar
     5    2   12 1
     6    3    5 ar
     7    3   13 1
     8    4    8 ar
     9    4   14 1
    10    5    8 ar
    11    5    9 1
    12    6    7 1
    13    6    9 am
    14    6   10 2
    15    7   15 1
    16    7   16 1
    17    7   17 1
    18    9   18 1
