@<TRIPOS>MOLECULE
*****
   29    30     0     0     0
SMALL
NO_CHARGES

@<TRIPOS>ATOM
      1 C1          1.1091    3.5261    1.9219 C.ar      1 <0>         0.0000
      2 C2          1.4367    2.5446    2.8635 C.ar      1 <0>         0.0000
      3 C3         -0.2318    3.8383    1.6650 C.ar      1 <0>         0.0000
      4 C4          0.4257    1.8590    3.5432 C.ar      1 <0>         0.0000
      5 C5         -1.2504    3.1608    2.3388 C.ar      1 <0>         0.0000
      6 C6         -0.9065    2.1694    3.2623 C.ar      1 <0>         0.0000
      7 C7         -2.7747   -2.0998    0.6258 C.2       1 <0>         0.0000
      8 C8         -1.8561   -0.9858    0.1129 C.3       1 <0>         0.0000
      9 C9         -2.5493   -2.2590    2.1304 C.3       1 <0>         0.0000
     10 C10        -0.9186   -0.6721    1.2897 C.3       1 <0>         0.0000
     11 C11        -1.7503   -1.0153    2.5552 C.3       1 <0>         0.0000
     12 N1         -2.6864    0.0450    2.9672 N.pl3     1 <0>         0.0000
     13 O1         -3.5496   -2.7475   -0.0497 O.2       1 <0>         0.0000
     14 O2         -1.6087    0.5265    5.1903 O.2       1 <0>         0.0000
     15 O3         -3.3810    2.1014    4.1892 O.2       1 <0>         0.0000
     16 S1         -2.2154    1.2275    4.0591 S.o2      1 <0>         0.0000
     17 H1          1.8980    4.0564    1.3956 H         1 <0>         0.0000
     18 H2          2.4778    2.3154    3.0733 H         1 <0>         0.0000
     19 H3         -0.4833    4.6141    0.9472 H         1 <0>         0.0000
     20 H4          0.6563    1.1016    4.2855 H         1 <0>         0.0000
     21 H5         -2.2945    3.4063    2.1688 H         1 <0>         0.0000
     22 H6         -1.3532   -1.2950   -0.8065 H         1 <0>         0.0000
     23 H7         -2.4870   -0.1267   -0.1503 H         1 <0>         0.0000
     24 H8         -3.4851   -2.3924    2.6760 H         1 <0>         0.0000
     25 H9         -1.9451   -3.1633    2.2762 H         1 <0>         0.0000
     26 H10        -0.0445   -1.3320    1.2583 H         1 <0>         0.0000
     27 H11        -0.5518    0.3549    1.2948 H         1 <0>         0.0000
     28 H12        -1.1229   -1.2166    3.4239 H         1 <0>         0.0000
     29 H13        -3.2920    0.4328    2.2465 H         1 <0>         0.0000
@<TRIPOS>BOND
     1    1    3 ar
     2    1    2 ar
     3    1   17 1
     4    2    4 ar
     5    2   18 1
     6    3    5 ar
     7    3   19 1
     8    4    6 ar
     9    4   20 1
    10    5    6 ar
    11    5   21 1
    12    6   16 1
    13    7    8 1
    14    7    9 1
    15    7   13 2
    16    8   10 1
    17    8   22 1
    18    8   23 1
    19    9   11 1
    20    9   24 1
    21    9   25 1
    22   10   11 1
    23   10   26 1
    24   10   27 1
    25   11   12 1
    26   11   28 1
    27   12   16 1
    28   12   29 1
    29   14   16 2
    30   15   16 2
