@<TRIPOS>MOLECULE
*****
   27    27     0     0     0
SMALL
NO_CHARGES

@<TRIPOS>ATOM
      1 C1          0.8875    0.7682   -0.2676 C.2       1 <0>         0.0000
      2 C2          0.4313   -0.3712   -0.8375 C.2       1 <0>         0.0000
      3 C3          1.5729    1.9135   -0.8843 C.2       1 <0>         0.0000
      4 C4         -0.0320   -0.8553    1.5122 C.3       1 <0>         0.0000
      5 C5         -0.3461   -1.3022    0.0684 C.3       1 <0>         0.0000
      6 C6         -2.5500    0.0496   -0.1922 C.3       1 <0>         0.0000
      7 C7          2.7659    2.4182   -4.2895 C.3       1 <0>         0.0000
      8 C8         -1.8548   -1.3130   -0.2820 C.3       1 <0>         0.0000
      9 C9          2.5306    2.8294   -2.8475 C.3       1 <0>         0.0000
     10 O1          1.8454    2.9346   -0.2692 O.2       1 <0>         0.0000
     11 O2          0.5515   -0.6787   -2.1582 O.3       1 <0>         0.0000
     12 O3          1.8621    1.7240   -2.1911 O.3       1 <0>         0.0000
     13 S1          0.5148    0.9086    1.4752 S.3       1 <0>         0.0000
     14 H1         -0.9012   -0.9453    2.1674 H         1 <0>         0.0000
     15 H2          0.7813   -1.4542    1.9290 H         1 <0>         0.0000
     16 H3          0.0262   -2.3279   -0.0684 H         1 <0>         0.0000
     17 H4         -2.4946    0.4658    0.8172 H         1 <0>         0.0000
     18 H5         -3.6067   -0.0461   -0.4614 H         1 <0>         0.0000
     19 H6         -2.0924    0.7756   -0.8706 H         1 <0>         0.0000
     20 H7          3.3935    1.5236   -4.3419 H         1 <0>         0.0000
     21 H8          1.8186    2.2047   -4.7931 H         1 <0>         0.0000
     22 H9          3.2704    3.2278   -4.8270 H         1 <0>         0.0000
     23 H10        -1.9832   -1.7186   -1.2949 H         1 <0>         0.0000
     24 H11        -2.3443   -2.0287    0.3894 H         1 <0>         0.0000
     25 H12         1.8986    3.7191   -2.7711 H         1 <0>         0.0000
     26 H13         3.4664    3.0386   -2.3210 H         1 <0>         0.0000
     27 H14         0.1755   -1.5618   -2.3027 H         1 <0>         0.0000
@<TRIPOS>BOND
     1    1    2 2
     2    1    3 1
     3    1   13 1
     4    2    5 1
     5    2   11 1
     6    3   10 2
     7    3   12 1
     8    4    5 1
     9    4   13 1
    10    4   14 1
    11    4   15 1
    12    5    8 1
    13    5   16 1
    14    6    8 1
    15    6   17 1
    16    6   18 1
    17    6   19 1
    18    7    9 1
    19    7   20 1
    20    7   21 1
    21    7   22 1
    22    8   23 1
    23    8   24 1
    24    9   12 1
    25    9   25 1
    26    9   26 1
    27   11   27 1
