@<TRIPOS>MOLECULE
*****
   32    32     0     0     0
SMALL
NO_CHARGES

@<TRIPOS>ATOM
      1 C1          2.6295   -2.0381   -3.4606 C.ar      1 <0>         0.0000
      2 C2          0.8903   -0.8877   -4.6684 C.ar      1 <0>         0.0000
      3 C3          3.3842   -2.1564   -4.6349 C.ar      1 <0>         0.0000
      4 C4          1.6232   -0.9979   -5.8412 C.ar      1 <0>         0.0000
      5 C5          1.3791   -1.4064   -3.4515 C.ar      1 <0>         0.0000
      6 C6          2.8821   -1.6344   -5.8378 C.ar      1 <0>         0.0000
      7 C7         -1.4497   -2.3635   -0.9292 C.3       1 <0>         0.0000
      8 C8          0.5501   -1.3244   -2.1877 C.3       1 <0>         0.0000
      9 C9          5.3550   -1.9960   -8.5192 C.3       1 <0>         0.0000
     10 C10         4.8560   -2.1897   -7.0940 C.3       1 <0>         0.0000
     11 C11        -0.6717   -2.2573   -2.2326 C.3       1 <0>         0.0000
     12 N1         -0.1667   -3.6463   -2.6415 N.4       1 <0>         0.0000
     13 O1          5.4731   -0.6297   -8.8899 O.3       1 <0>         0.0000
     14 O2          3.5138   -1.6847   -7.0294 O.3       1 <0>         0.0000
     15 H1          3.0506   -2.4193   -2.5314 H         1 <0>         0.0000
     16 H2         -0.0650   -0.3663   -4.6928 H         1 <0>         0.0000
     17 H3          4.3535   -2.6396   -4.5957 H         1 <0>         0.0000
     18 H4          1.2589   -0.5820   -6.7756 H         1 <0>         0.0000
     19 H5         -0.8091   -2.7003   -0.1068 H         1 <0>         0.0000
     20 H6         -1.8322   -1.3746   -0.6645 H         1 <0>         0.0000
     21 H7         -2.3079   -3.0378   -1.0112 H         1 <0>         0.0000
     22 H8          0.1652   -0.3118   -2.0283 H         1 <0>         0.0000
     23 H9          1.1595   -1.5677   -1.3093 H         1 <0>         0.0000
     24 H10         4.6356   -2.4386   -9.2130 H         1 <0>         0.0000
     25 H11         6.3055   -2.5370   -8.6283 H         1 <0>         0.0000
     26 H12         5.4893   -1.6452   -6.3813 H         1 <0>         0.0000
     27 H13         4.8655   -3.2578   -6.8359 H         1 <0>         0.0000
     28 H14        -1.3272   -1.9635   -3.0563 H         1 <0>         0.0000
     29 H15        -0.9295   -4.2807   -2.9034 H         1 <0>         0.0000
     30 H16         0.3617   -4.0858   -1.8784 H         1 <0>         0.0000
     31 H17         0.4817   -3.5361   -3.4412 H         1 <0>         0.0000
     32 H18         6.2803   -0.2624   -8.4978 H         1 <0>         0.0000
@<TRIPOS>BOND
     1    1    3 ar
     2    1    5 ar
     3    1   15 1
     4    2    4 ar
     5    2    5 ar
     6    2   16 1
     7    3    6 ar
     8    3   17 1
     9    4    6 ar
    10    4   18 1
    11    5    8 1
    12    6   14 1
    13    7   11 1
    14    7   19 1
    15    7   20 1
    16    7   21 1
    17    8   11 1
    18    8   22 1
    19    8   23 1
    20    9   10 1
    21    9   13 1
    22    9   24 1
    23    9   25 1
    24   10   14 1
    25   10   26 1
    26   10   27 1
    27   11   12 1
    28   11   28 1
    29   12   29 1
    30   12   30 1
    31   12   31 1
    32   13   32 1
