@<TRIPOS>MOLECULE
*****
   23    24     0     0     0
SMALL
NO_CHARGES

@<TRIPOS>ATOM
      1 C1          1.6542   -0.7078   -2.7499 C.2       1 <0>         0.0000
      2 C2          3.1721    0.1953   -4.3177 C.2       1 <0>         0.0000
      3 C3          0.6222   -1.0358   -1.6974 C.2       1 <0>         0.0000
      4 C4         -1.6054    0.0549    0.4442 C.3       1 <0>         0.0000
      5 C5         -0.6048    0.7488    1.3443 C.3       1 <0>         0.0000
      6 C6         -0.1907   -0.4569    0.5354 C.3       1 <0>         0.0000
      7 C7          3.2821    0.9556   -6.8968 C.3       1 <0>         0.0000
      8 N1          2.2214   -1.6292   -3.4853 N.2       1 <0>         0.0000
      9 N2          3.1087   -1.1014   -4.3863 N.2       1 <0>         0.0000
     10 N3          0.6876   -0.2346   -0.5839 N.am      1 <0>         0.0000
     11 O1         -0.2083   -1.9135   -1.8699 O.2       1 <0>         0.0000
     12 O2          3.9809    2.6504   -4.9035 O.2       1 <0>         0.0000
     13 S1          2.1555    0.9329   -3.1132 S.3       1 <0>         0.0000
     14 S2          4.2495    1.2317   -5.3590 S.o       1 <0>         0.0000
     15 H1         -2.3833   -0.5521    0.8952 H         1 <0>         0.0000
     16 H2         -1.8864    0.5535   -0.4773 H         1 <0>         0.0000
     17 H3         -0.2319    1.7178    1.0250 H         1 <0>         0.0000
     18 H4         -0.6928    0.6260    2.4192 H         1 <0>         0.0000
     19 H5         -0.0356   -1.3979    1.0583 H         1 <0>         0.0000
     20 H6          3.7834    1.5246   -7.6828 H         1 <0>         0.0000
     21 H7          2.2690    1.3314   -6.7403 H         1 <0>         0.0000
     22 H8          3.2815   -0.1117   -7.1287 H         1 <0>         0.0000
     23 H9          1.5508    0.2669   -0.4082 H         1 <0>         0.0000
@<TRIPOS>BOND
     1    1    3 1
     2    1    8 2
     3    1   13 1
     4    2    9 2
     5    2   13 1
     6    2   14 1
     7    3   10 am
     8    3   11 2
     9    4    5 1
    10    4    6 1
    11    4   15 1
    12    4   16 1
    13    5    6 1
    14    5   17 1
    15    5   18 1
    16    6   10 1
    17    6   19 1
    18    7   14 1
    19    7   20 1
    20    7   21 1
    21    7   22 1
    22    8    9 1
    23   10   23 1
    24   12   14 2
