@<TRIPOS>MOLECULE
*****
   27    27     0     0     0
SMALL
NO_CHARGES

@<TRIPOS>ATOM
      1 C1          0.4428    1.4622    0.2809 C.2       1 <0>         0.0000
      2 C2          0.5821    0.1842    0.7281 C.2       1 <0>         0.0000
      3 C3          1.4724    2.4906    0.2238 C.2       1 <0>         0.0000
      4 C4         -1.6677    0.0884   -0.1664 C.3       1 <0>         0.0000
      5 C5         -0.6914   -0.6263    0.7848 C.3       1 <0>         0.0000
      6 C6         -1.7867   -2.9283    0.5950 C.3       1 <0>         0.0000
      7 C7          3.8283    3.7371    1.9231 C.3       1 <0>         0.0000
      8 C8         -0.4957   -2.1141    0.4580 C.3       1 <0>         0.0000
      9 C9          3.8085    2.9527    0.6202 C.3       1 <0>         0.0000
     10 O1          1.3002    3.6514   -0.1000 O.2       1 <0>         0.0000
     11 O2          1.7047   -0.4091    1.1759 O.3       1 <0>         0.0000
     12 O3          2.7114    1.9960    0.5931 O.3       1 <0>         0.0000
     13 S1         -1.2369    1.8828   -0.1678 S.3       1 <0>         0.0000
     14 H1         -1.5489   -0.2970   -1.1848 H         1 <0>         0.0000
     15 H2         -2.7095   -0.0238    0.1357 H         1 <0>         0.0000
     16 H3         -1.0668   -0.5404    1.8173 H         1 <0>         0.0000
     17 H4         -2.1976   -2.8486    1.6082 H         1 <0>         0.0000
     18 H5         -1.6015   -3.9880    0.3930 H         1 <0>         0.0000
     19 H6         -2.5580   -2.5897   -0.1049 H         1 <0>         0.0000
     20 H7          2.9305    4.3521    2.0174 H         1 <0>         0.0000
     21 H8          3.8921    3.0637    2.7835 H         1 <0>         0.0000
     22 H9          4.7019    4.3981    1.9388 H         1 <0>         0.0000
     23 H10        -0.1019   -2.2045   -0.5620 H         1 <0>         0.0000
     24 H11         0.2722   -2.5191    1.1242 H         1 <0>         0.0000
     25 H12         4.7029    2.3367    0.5050 H         1 <0>         0.0000
     26 H13         3.7099    3.6122   -0.2435 H         1 <0>         0.0000
     27 H14         2.4269    0.2544    1.1191 H         1 <0>         0.0000
@<TRIPOS>BOND
     1    1    2 2
     2    1    3 1
     3    1   13 1
     4    2    5 1
     5    2   11 1
     6    3   10 2
     7    3   12 1
     8    4    5 1
     9    4   13 1
    10    4   14 1
    11    4   15 1
    12    5    8 1
    13    5   16 1
    14    6    8 1
    15    6   17 1
    16    6   18 1
    17    6   19 1
    18    7    9 1
    19    7   20 1
    20    7   21 1
    21    7   22 1
    22    8   23 1
    23    8   24 1
    24    9   12 1
    25    9   25 1
    26    9   26 1
    27   11   27 1
