@<TRIPOS>MOLECULE
*****
   32    32     0     0     0
SMALL
NO_CHARGES

@<TRIPOS>ATOM
      1 C1          2.5215   -2.2603   -4.0174 C.ar      1 <0>         0.0000
      2 C2          1.1605   -0.5565   -5.0397 C.ar      1 <0>         0.0000
      3 C3          3.0650   -2.5793   -5.2549 C.ar      1 <0>         0.0000
      4 C4          1.6991   -0.8617   -6.2936 C.ar      1 <0>         0.0000
      5 C5          1.5558   -1.2462   -3.8900 C.ar      1 <0>         0.0000
      6 C6          2.6541   -1.8840   -6.4078 C.ar      1 <0>         0.0000
      7 C7         -1.3246   -2.0696   -3.0724 C.3       1 <0>         0.0000
      8 C8          0.9353   -0.9443   -2.5438 C.3       1 <0>         0.0000
      9 C9          3.5860   -2.3284   -9.9189 C.3       1 <0>         0.0000
     10 C10         2.8523   -1.6148   -8.7963 C.3       1 <0>         0.0000
     11 C11        -0.1038   -2.0104   -2.1660 C.3       1 <0>         0.0000
     12 N1         -0.5862   -1.7168   -0.7277 N.4       1 <0>         0.0000
     13 O1          3.1684   -3.6805  -10.0537 O.3       1 <0>         0.0000
     14 O2          3.2419   -2.2635   -7.5695 O.3       1 <0>         0.0000
     15 H1          2.8681   -2.7999   -3.1373 H         1 <0>         0.0000
     16 H2          0.4261    0.2431   -4.9682 H         1 <0>         0.0000
     17 H3          3.8179   -3.3551   -5.3552 H         1 <0>         0.0000
     18 H4          1.3770   -0.2975   -7.1606 H         1 <0>         0.0000
     19 H5         -1.8385   -1.1028   -3.1162 H         1 <0>         0.0000
     20 H6         -0.9943   -2.3147   -4.0832 H         1 <0>         0.0000
     21 H7         -2.0354   -2.8400   -2.7565 H         1 <0>         0.0000
     22 H8          0.4512    0.0399   -2.5652 H         1 <0>         0.0000
     23 H9          1.7153   -0.9088   -1.7710 H         1 <0>         0.0000
     24 H10         4.6701   -2.2543   -9.7569 H         1 <0>         0.0000
     25 H11         3.3489   -1.8334  -10.8644 H         1 <0>         0.0000
     26 H12         1.7694   -1.7121   -8.9351 H         1 <0>         0.0000
     27 H13         3.1289   -0.5533   -8.7597 H         1 <0>         0.0000
     28 H14         0.3732   -2.9915   -2.0964 H         1 <0>         0.0000
     29 H15        -1.2506   -2.4265   -0.3951 H         1 <0>         0.0000
     30 H16        -1.0617   -0.8066   -0.6855 H         1 <0>         0.0000
     31 H17         0.1996   -1.6837   -0.0664 H         1 <0>         0.0000
     32 H18         3.4356   -4.1535   -9.2497 H         1 <0>         0.0000
@<TRIPOS>BOND
     1    1    3 ar
     2    1    5 ar
     3    1   15 1
     4    2    4 ar
     5    2    5 ar
     6    2   16 1
     7    3    6 ar
     8    3   17 1
     9    4    6 ar
    10    4   18 1
    11    5    8 1
    12    6   14 1
    13    7   11 1
    14    7   19 1
    15    7   20 1
    16    7   21 1
    17    8   11 1
    18    8   22 1
    19    8   23 1
    20    9   10 1
    21    9   13 1
    22    9   24 1
    23    9   25 1
    24   10   14 1
    25   10   26 1
    26   10   27 1
    27   11   12 1
    28   11   28 1
    29   12   29 1
    30   12   30 1
    31   12   31 1
    32   13   32 1
