@<TRIPOS>MOLECULE
*****
   32    34     0     0     0
SMALL
NO_CHARGES

@<TRIPOS>ATOM
      1 C1          0.2660    0.1931   -2.2500 C.ar      1 <0>         0.0000
      2 C2         -0.1352   -0.3527   -1.0234 C.ar      1 <0>         0.0000
      3 C3         -0.0418   -0.4725   -3.4354 C.ar      1 <0>         0.0000
      4 C4         -0.8386   -1.5553   -1.0083 C.ar      1 <0>         0.0000
      5 C5         -0.7475   -1.6876   -3.4312 C.ar      1 <0>         0.0000
      6 C6         -1.1457   -2.2334   -2.1985 C.ar      1 <0>         0.0000
      7 C7         -4.1710   -4.1369   -1.2313 C.2       1 <0>         0.0000
      8 C8         -1.0349   -2.3909   -4.7449 C.3       1 <0>         0.0000
      9 C9         -2.1478   -3.4366   -4.6318 C.3       1 <0>         0.0000
     10 C10        -1.8976   -4.3358   -3.4204 C.3       1 <0>         0.0000
     11 C11        -4.9509   -6.0624   -0.3194 C.3       1 <0>         0.0000
     12 C12        -6.2957   -5.3630   -0.6253 C.3       1 <0>         0.0000
     13 C13        -1.9412   -3.5272   -2.1149 C.3       1 <0>         0.0000
     14 N1         -3.8679   -5.3618   -1.0002 N.2       1 <0>         0.0000
     15 N2         -3.3159   -3.1871   -1.7082 N.pl3     1 <0>         0.0000
     16 S1         -5.8508   -3.5940   -0.8197 S.3       1 <0>         0.0000
     17 H1          0.8121    1.1327   -2.2791 H         1 <0>         0.0000
     18 H2          0.0982    0.1570   -0.0922 H         1 <0>         0.0000
     19 H3          0.2663   -0.0453   -4.3880 H         1 <0>         0.0000
     20 H4         -1.1652   -1.9835   -0.0631 H         1 <0>         0.0000
     21 H5         -1.2751   -1.6474   -5.5131 H         1 <0>         0.0000
     22 H6         -0.1143   -2.8891   -5.0803 H         1 <0>         0.0000
     23 H7         -3.1216   -2.9400   -4.5283 H         1 <0>         0.0000
     24 H8         -2.1975   -4.0314   -5.5500 H         1 <0>         0.0000
     25 H9         -2.6268   -5.1464   -3.3532 H         1 <0>         0.0000
     26 H10        -0.9063   -4.7994   -3.5086 H         1 <0>         0.0000
     27 H11        -4.7632   -6.0572    0.7639 H         1 <0>         0.0000
     28 H12        -4.9844   -7.1083   -0.6418 H         1 <0>         0.0000
     29 H13        -6.7356   -5.7228   -1.5592 H         1 <0>         0.0000
     30 H14        -7.0213   -5.4729    0.1830 H         1 <0>         0.0000
     31 H15        -1.5426   -4.1485   -1.3080 H         1 <0>         0.0000
     32 H16        -3.7238   -2.3558   -2.1149 H         1 <0>         0.0000
@<TRIPOS>BOND
     1    1    2 ar
     2    1    3 ar
     3    1   17 1
     4    2    4 ar
     5    2   18 1
     6    3    5 ar
     7    3   19 1
     8    4    6 ar
     9    4   20 1
    10    5    6 ar
    11    5    8 1
    12    6   13 1
    13    7   14 2
    14    7   15 1
    15    7   16 1
    16    8    9 1
    17    8   21 1
    18    8   22 1
    19    9   10 1
    20    9   23 1
    21    9   24 1
    22   10   13 1
    23   10   25 1
    24   10   26 1
    25   11   12 1
    26   11   14 1
    27   11   27 1
    28   11   28 1
    29   12   16 1
    30   12   29 1
    31   12   30 1
    32   13   15 1
    33   13   31 1
    34   15   32 1
