@<TRIPOS>MOLECULE
*****
   23    24     0     0     0
SMALL
NO_CHARGES

@<TRIPOS>ATOM
      1 C1          1.7977   -0.3068   -3.3038 C.2       1 <0>         0.0000
      2 C2          2.8784    0.0578   -5.3523 C.2       1 <0>         0.0000
      3 C3          1.0468   -0.8197   -2.1102 C.2       1 <0>         0.0000
      4 C4         -1.1891   -0.3382    0.2130 C.3       1 <0>         0.0000
      5 C5         -0.4819    0.8451    0.8393 C.3       1 <0>         0.0000
      6 C6          0.3148   -0.2358    0.1503 C.3       1 <0>         0.0000
      7 C7          5.3168   -0.0176   -6.4849 C.3       1 <0>         0.0000
      8 N1          2.3456    0.8819   -3.3723 N.2       1 <0>         0.0000
      9 N2          2.9702    1.0988   -4.5711 N.2       1 <0>         0.0000
     10 N3          0.9344    0.0877   -1.1050 N.am      1 <0>         0.0000
     11 O1          0.5928   -1.9618   -2.1007 O.2       1 <0>         0.0000
     12 O2          3.2386   -1.3866   -7.5507 O.2       1 <0>         0.0000
     13 S1          1.9997   -1.3009   -4.7167 S.3       1 <0>         0.0000
     14 S2          3.5643   -0.0002   -7.0397 S.o       1 <0>         0.0000
     15 H1         -1.6098   -1.1007    0.8603 H         1 <0>         0.0000
     16 H2         -1.7285   -0.1721   -0.7133 H         1 <0>         0.0000
     17 H3         -0.5655    1.8033    0.3344 H         1 <0>         0.0000
     18 H4         -0.4161    0.9052    1.9212 H         1 <0>         0.0000
     19 H5          0.8831   -0.9239    0.7721 H         1 <0>         0.0000
     20 H6          5.9262   -0.0546   -7.3905 H         1 <0>         0.0000
     21 H7          5.4779   -0.9123   -5.8802 H         1 <0>         0.0000
     22 H8          5.5193    0.8925   -5.9161 H         1 <0>         0.0000
     23 H9          1.4296    0.9665   -1.2161 H         1 <0>         0.0000
@<TRIPOS>BOND
     1    1    3 1
     2    1    8 2
     3    1   13 1
     4    2    9 2
     5    2   13 1
     6    2   14 1
     7    3   10 am
     8    3   11 2
     9    4    5 1
    10    4    6 1
    11    4   15 1
    12    4   16 1
    13    5    6 1
    14    5   17 1
    15    5   18 1
    16    6   10 1
    17    6   19 1
    18    7   14 1
    19    7   20 1
    20    7   21 1
    21    7   22 1
    22    8    9 1
    23   10   23 1
    24   12   14 2
