@<TRIPOS>MOLECULE
*****
   74    76     0     0     0
SMALL
NO_CHARGES

@<TRIPOS>ATOM
      1 C1          1.1350    4.8146    1.4356 C.ar      1 <0>         0.0000
      2 C2          1.1415    4.8817    2.8315 C.ar      1 <0>         0.0000
      3 C3          0.5711    3.7173    0.7821 C.ar      1 <0>         0.0000
      4 C4         -0.0055    2.7641    2.9170 C.ar      1 <0>         0.0000
      5 C5          0.5717    3.8514    3.5865 C.ar      1 <0>         0.0000
      6 C6          0.0014    2.6726    1.5228 C.ar      1 <0>         0.0000
      7 C7          0.9769    2.6541    5.8024 C.3       1 <0>         0.0000
      8 C8          0.1991    0.9083   -0.3374 C.3       1 <0>         0.0000
      9 C9          2.4856    2.8142    5.7242 C.3       1 <0>         0.0000
     10 C10         0.4502   -0.5341    0.1126 C.3       1 <0>         0.0000
     11 C11         0.5182    3.9470    5.1165 C.3       1 <0>         0.0000
     12 C12        -0.6709    1.4935    0.8193 C.3       1 <0>         0.0000
     13 C13        -0.8663    4.4238    5.5627 C.3       1 <0>         0.0000
     14 C14        -2.0786    1.8881    0.3618 C.3       1 <0>         0.0000
     15 C15         5.0796    3.9944    5.8594 C.3       1 <0>         0.0000
     16 C16        -1.1316   -2.3898    2.0529 C.3       1 <0>         0.0000
     17 C17         3.0886    7.2998    5.1804 C.3       1 <0>         0.0000
     18 C18         3.7545    6.4935    7.4640 C.3       1 <0>         0.0000
     19 C19         5.4723    6.8460    5.6663 C.3       1 <0>         0.0000
     20 C20         1.8106   -0.6213    3.9612 C.3       1 <0>         0.0000
     21 C21        -0.6030   -0.8986    4.6262 C.3       1 <0>         0.0000
     22 C22         0.8914   -2.8966    4.4156 C.3       1 <0>         0.0000
     23 C23         3.8681    4.8681    5.4888 C.3       1 <0>         0.0000
     24 C24         0.2092   -1.6801    2.3094 C.3       1 <0>         0.0000
     25 C25         4.0355    6.3593    5.9568 C.3       1 <0>         0.0000
     26 C26         0.5608   -1.5111    3.8233 C.3       1 <0>         0.0000
     27 N1          2.6839    4.2252    6.0935 N.3       1 <0>         0.0000
     28 N2          0.3668   -0.4141    1.5712 N.3       1 <0>         0.0000
     29 O1          1.4682    4.9181    5.5997 O.3       1 <0>         0.0000
     30 O2         -0.8537    0.3851    1.7240 O.3       1 <0>         0.0000
     31 H1          1.5757    5.6214    0.8547 H         1 <0>         0.0000
     32 H2          1.5855    5.7283    3.3410 H         1 <0>         0.0000
     33 H3          0.5771    3.6806   -0.3049 H         1 <0>         0.0000
     34 H4         -0.4697    1.9593    3.4742 H         1 <0>         0.0000
     35 H5          0.6248    1.7459    5.3177 H         1 <0>         0.0000
     36 H6          0.6452    2.6536    6.8451 H         1 <0>         0.0000
     37 H7          1.1406    1.4510   -0.4257 H         1 <0>         0.0000
     38 H8         -0.3180    0.9529   -1.2994 H         1 <0>         0.0000
     39 H9          3.0147    2.1756    6.4344 H         1 <0>         0.0000
     40 H10         2.8361    2.5847    4.7054 H         1 <0>         0.0000
     41 H11        -0.3091   -1.2119   -0.3042 H         1 <0>         0.0000
     42 H12         1.4441   -0.8999   -0.1596 H         1 <0>         0.0000
     43 H13        -0.8971    4.5191    6.6519 H         1 <0>         0.0000
     44 H14        -1.6339    3.7135    5.2406 H         1 <0>         0.0000
     45 H15        -1.0944    5.3961    5.1165 H         1 <0>         0.0000
     46 H16        -2.5580    1.0490   -0.1520 H         1 <0>         0.0000
     47 H17        -2.0303    2.7441   -0.3174 H         1 <0>         0.0000
     48 H18        -2.6907    2.1707    1.2231 H         1 <0>         0.0000
     49 H19         5.2161    3.9434    6.9441 H         1 <0>         0.0000
     50 H20         5.9908    4.3935    5.4138 H         1 <0>         0.0000
     51 H21         4.9661    2.9755    5.4841 H         1 <0>         0.0000
     52 H22        -1.9732   -1.7718    2.3680 H         1 <0>         0.0000
     53 H23        -1.1748   -3.3397    2.5912 H         1 <0>         0.0000
     54 H24        -1.2629   -2.6151    0.9909 H         1 <0>         0.0000
     55 H25         3.2709    7.2323    4.1007 H         1 <0>         0.0000
     56 H26         2.0411    7.0681    5.3675 H         1 <0>         0.0000
     57 H27         3.2729    8.3385    5.4790 H         1 <0>         0.0000
     58 H28         4.4015    5.8382    8.0566 H         1 <0>         0.0000
     59 H29         2.7187    6.2359    7.6949 H         1 <0>         0.0000
     60 H30         3.9389    7.5248    7.7868 H         1 <0>         0.0000
     61 H31         6.2157    6.3701    6.3118 H         1 <0>         0.0000
     62 H32         5.5358    7.9256    5.8386 H         1 <0>         0.0000
     63 H33         5.7576    6.6638    4.6228 H         1 <0>         0.0000
     64 H34         2.6512   -1.0343    3.3910 H         1 <0>         0.0000
     65 H35         1.6306    0.3872    3.5872 H         1 <0>         0.0000
     66 H36         2.1155   -0.5615    5.0126 H         1 <0>         0.0000
     67 H37        -1.4615   -1.5760    4.6727 H         1 <0>         0.0000
     68 H38        -0.9460    0.0381    4.1836 H         1 <0>         0.0000
     69 H39        -0.2864   -0.7020    5.6569 H         1 <0>         0.0000
     70 H40         0.0382   -3.5808    4.3769 H         1 <0>         0.0000
     71 H41         1.1808   -2.7978    5.4676 H         1 <0>         0.0000
     72 H42         1.7278   -3.3673    3.8851 H         1 <0>         0.0000
     73 H43         3.7722    4.8664    4.3895 H         1 <0>         0.0000
     74 H44         1.0108   -2.3018    1.8886 H         1 <0>         0.0000
@<TRIPOS>BOND
     1    1    2 ar
     2    1    3 ar
     3    1   31 1
     4    2    5 ar
     5    2   32 1
     6    3    6 ar
     7    3   33 1
     8    4    5 ar
     9    4    6 ar
    10    4   34 1
    11    5   11 1
    12    6   12 1
    13    7    9 1
    14    7   11 1
    15    7   35 1
    16    7   36 1
    17    8   10 1
    18    8   12 1
    19    8   37 1
    20    8   38 1
    21    9   27 1
    22    9   39 1
    23    9   40 1
    24   10   28 1
    25   10   41 1
    26   10   42 1
    27   11   13 1
    28   11   29 1
    29   12   14 1
    30   12   30 1
    31   13   43 1
    32   13   44 1
    33   13   45 1
    34   14   46 1
    35   14   47 1
    36   14   48 1
    37   15   23 1
    38   15   49 1
    39   15   50 1
    40   15   51 1
    41   16   24 1
    42   16   52 1
    43   16   53 1
    44   16   54 1
    45   17   25 1
    46   17   55 1
    47   17   56 1
    48   17   57 1
    49   18   25 1
    50   18   58 1
    51   18   59 1
    52   18   60 1
    53   19   25 1
    54   19   61 1
    55   19   62 1
    56   19   63 1
    57   20   26 1
    58   20   64 1
    59   20   65 1
    60   20   66 1
    61   21   26 1
    62   21   67 1
    63   21   68 1
    64   21   69 1
    65   22   26 1
    66   22   70 1
    67   22   71 1
    68   22   72 1
    69   23   25 1
    70   23   27 1
    71   23   73 1
    72   24   26 1
    73   24   28 1
    74   24   74 1
    75   27   29 1
    76   28   30 1
