@<TRIPOS>MOLECULE
*****
   49    49     0     0     0
SMALL
NO_CHARGES

@<TRIPOS>ATOM
      1 C1         -6.9754    2.1577    3.0658 C.2       1 <0>         0.0000
      2 C2         -6.2953   -0.9521    2.2893 C.2       1 <0>         0.0000
      3 C3         -7.7890    2.8267    4.1643 C.3       1 <0>         0.0000
      4 C4         -7.1379    2.3406    5.4674 C.3       1 <0>         0.0000
      5 C5         -6.4372    1.0127    5.0798 C.3       1 <0>         0.0000
      6 C6         -9.6022   -6.4718    1.7022 C.3       1 <0>         0.0000
      7 C7         -9.4773   -3.9828    1.5424 C.3       1 <0>         0.0000
      8 C8         -6.6747   -6.9782    3.6438 C.3       1 <0>         0.0000
      9 C9         -5.3533   -6.6295    1.5021 C.3       1 <0>         0.0000
     10 C10        -5.4701    0.2270    2.8395 C.3       1 <0>         0.0000
     11 C11        -6.1833   -3.2045    1.2977 C.3       1 <0>         0.0000
     12 C12        -6.6734   -4.1303    2.4232 C.3       1 <0>         0.0000
     13 C13        -8.8511   -5.2270    2.1920 C.3       1 <0>         0.0000
     14 C14        -6.7411   -6.5807    2.1556 C.3       1 <0>         0.0000
     15 C15        -7.2520   -0.2099    5.5192 C.3       1 <0>         0.0000
     16 N1         -6.2580    1.1262    3.6468 N.am      1 <0>         0.0000
     17 N2         -5.5512   -1.9917    1.8180 N.am      1 <0>         0.0000
     18 N3         -7.4018   -5.2875    1.8912 N.3       1 <0>         0.0000
     19 O1         -6.9235    2.4589    1.8841 O.2       1 <0>         0.0000
     20 O2         -7.5203   -0.9213    2.2466 O.2       1 <0>         0.0000
     21 F1         -7.3160   -0.2443    6.8790 F         1 <0>         0.0000
     22 F2         -8.5136   -0.2055    5.0554 F         1 <0>         0.0000
     23 F3         -6.6629   -1.3702    5.1303 F         1 <0>         0.0000
     24 H1         -7.7759    3.9104    4.0387 H         1 <0>         0.0000
     25 H2         -8.8239    2.4851    4.0668 H         1 <0>         0.0000
     26 H3         -6.3749    3.0488    5.7997 H         1 <0>         0.0000
     27 H4         -7.8444    2.2042    6.2869 H         1 <0>         0.0000
     28 H5         -5.4701    0.9021    5.5847 H         1 <0>         0.0000
     29 H6         -9.3967   -6.6544    0.6413 H         1 <0>         0.0000
     30 H7         -9.3529   -7.3752    2.2656 H         1 <0>         0.0000
     31 H8        -10.6786   -6.3085    1.8134 H         1 <0>         0.0000
     32 H9         -9.3853   -4.0441    0.4520 H         1 <0>         0.0000
     33 H10        -9.0199   -3.0475    1.8724 H         1 <0>         0.0000
     34 H11       -10.5420   -3.9318    1.7944 H         1 <0>         0.0000
     35 H12        -6.0493   -6.2883    4.2210 H         1 <0>         0.0000
     36 H13        -7.6702   -6.9850    4.0987 H         1 <0>         0.0000
     37 H14        -6.2490   -7.9818    3.7554 H         1 <0>         0.0000
     38 H15        -4.6413   -5.9487    1.9815 H         1 <0>         0.0000
     39 H16        -5.4230   -6.3648    0.4426 H         1 <0>         0.0000
     40 H17        -4.9368   -7.6394    1.5802 H         1 <0>         0.0000
     41 H18        -4.6110   -0.1303    3.4173 H         1 <0>         0.0000
     42 H19        -5.0976    0.7991    1.9835 H         1 <0>         0.0000
     43 H20        -7.0251   -2.9069    0.6723 H         1 <0>         0.0000
     44 H21        -5.4633   -3.7271    0.6628 H         1 <0>         0.0000
     45 H22        -5.8080   -4.4458    3.0158 H         1 <0>         0.0000
     46 H23        -7.2993   -3.5462    3.1054 H         1 <0>         0.0000
     47 H24        -9.0090   -5.1478    3.2844 H         1 <0>         0.0000
     48 H25        -7.3369   -7.3364    1.6399 H         1 <0>         0.0000
     49 H26        -4.5540   -1.9942    1.9867 H         1 <0>         0.0000
@<TRIPOS>BOND
     1    1    3 1
     2    1   16 am
     3    1   19 2
     4    2   10 1
     5    2   17 am
     6    2   20 2
     7    3    4 1
     8    3   24 1
     9    3   25 1
    10    4    5 1
    11    4   26 1
    12    4   27 1
    13    5   15 1
    14    5   16 1
    15    5   28 1
    16    6   13 1
    17    6   29 1
    18    6   30 1
    19    6   31 1
    20    7   13 1
    21    7   32 1
    22    7   33 1
    23    7   34 1
    24    8   14 1
    25    8   35 1
    26    8   36 1
    27    8   37 1
    28    9   14 1
    29    9   38 1
    30    9   39 1
    31    9   40 1
    32   10   16 1
    33   10   41 1
    34   10   42 1
    35   11   12 1
    36   11   17 1
    37   11   43 1
    38   11   44 1
    39   12   18 1
    40   12   45 1
    41   12   46 1
    42   13   18 1
    43   13   47 1
    44   14   18 1
    45   14   48 1
    46   15   21 1
    47   15   22 1
    48   15   23 1
    49   17   49 1
