@<TRIPOS>MOLECULE
*****
   57    60     0     0     0
SMALL
NO_CHARGES

@<TRIPOS>ATOM
      1 C1          0.8510    2.1519    0.0887 C.ar      1 <0>         0.0000
      2 C2         -1.3445    1.3071   -0.5172 C.ar      1 <0>         0.0000
      3 C3          0.2799   -7.4965    9.7167 C.ar      1 <0>         0.0000
      4 C4          0.6428   -6.4771    8.8343 C.ar      1 <0>         0.0000
      5 C5          0.4448    3.4476   -0.2207 C.ar      1 <0>         0.0000
      6 C6         -1.7626    2.5921   -0.8376 C.ar      1 <0>         0.0000
      7 C7         -0.2629   -7.7502    6.9622 C.ar      1 <0>         0.0000
      8 C8         -0.0346    1.0648   -0.0521 C.ar      1 <0>         0.0000
      9 C9         -0.3580   -8.6396    9.2292 C.ar      1 <0>         0.0000
     10 C10        -0.6246   -8.7587    7.8608 C.ar      1 <0>         0.0000
     11 C11         0.3709   -6.6076    7.4659 C.ar      1 <0>         0.0000
     12 C12        -0.8566    3.6435   -0.6813 C.ar      1 <0>         0.0000
     13 C13         0.3288   -0.3313    0.2810 C.2       1 <0>         0.0000
     14 C14        -0.8267   -9.8738    9.9720 C.3       1 <0>         0.0000
     15 C15        -1.2936  -10.0855    7.5656 C.3       1 <0>         0.0000
     16 C16        -1.7913  -10.5426    8.9602 C.3       1 <0>         0.0000
     17 C17         2.2263   -2.0481    0.3468 C.3       1 <0>         0.0000
     18 C18         1.7494   -0.5818    2.3339 C.3       1 <0>         0.0000
     19 C19         1.5100   -3.2106    1.0281 C.3       1 <0>         0.0000
     20 C20         0.9636   -1.7237    2.9708 C.3       1 <0>         0.0000
     21 C21         1.7390   -0.6563    0.7911 C.3       1 <0>         0.0000
     22 C22         1.0580   -4.2966    4.7060 C.3       1 <0>         0.0000
     23 C23         0.8178   -4.2347    3.2017 C.3       1 <0>         0.0000
     24 C24         0.5202   -5.6033    5.2922 C.3       1 <0>         0.0000
     25 N1          1.5207   -3.0668    2.5401 N.4       1 <0>         0.0000
     26 O1         -0.5006   -1.2422    0.2127 O.2       1 <0>         0.0000
     27 O2          0.7690   -5.5335    6.6797 O.3       1 <0>         0.0000
     28 F1         -1.2527    4.8899   -0.9862 F         1 <0>         0.0000
     29 H1          1.8660    2.0088    0.4437 H         1 <0>         0.0000
     30 H2         -2.0218    0.4664   -0.6240 H         1 <0>         0.0000
     31 H3          0.4920   -7.3875   10.7777 H         1 <0>         0.0000
     32 H4          1.1309   -5.5732    9.1867 H         1 <0>         0.0000
     33 H5          1.1118    4.2973   -0.1172 H         1 <0>         0.0000
     34 H6         -2.7644    2.7956   -1.2024 H         1 <0>         0.0000
     35 H7         -0.4832   -7.8648    5.9052 H         1 <0>         0.0000
     36 H8          0.0269  -10.5287   10.1923 H         1 <0>         0.0000
     37 H9         -1.3085   -9.6438   10.9272 H         1 <0>         0.0000
     38 H10        -2.1009  -10.0082    6.8301 H         1 <0>         0.0000
     39 H11        -0.5563  -10.7925    7.1614 H         1 <0>         0.0000
     40 H12        -1.8273  -11.6302    9.0615 H         1 <0>         0.0000
     41 H13        -2.8047  -10.1608    9.1228 H         1 <0>         0.0000
     42 H14         3.3041   -2.1165    0.5409 H         1 <0>         0.0000
     43 H15         2.0948   -2.1756   -0.7313 H         1 <0>         0.0000
     44 H16         1.3165    0.3586    2.6874 H         1 <0>         0.0000
     45 H17         2.7864   -0.6010    2.6930 H         1 <0>         0.0000
     46 H18         0.4636   -3.2530    0.7321 H         1 <0>         0.0000
     47 H19         1.9983   -4.1616    0.8035 H         1 <0>         0.0000
     48 H20         1.0219   -1.6809    4.0579 H         1 <0>         0.0000
     49 H21        -0.0839   -1.7192    2.6650 H         1 <0>         0.0000
     50 H22         2.4509    0.0765    0.4094 H         1 <0>         0.0000
     51 H23         0.5682   -3.4697    5.2260 H         1 <0>         0.0000
     52 H24         2.1313   -4.2399    4.9261 H         1 <0>         0.0000
     53 H25        -0.2414   -4.1358    2.9532 H         1 <0>         0.0000
     54 H26         1.1995   -5.1334    2.7102 H         1 <0>         0.0000
     55 H27         1.0318   -6.4673    4.8433 H         1 <0>         0.0000
     56 H28        -0.5563   -5.7023    5.0890 H         1 <0>         0.0000
     57 H29         2.5005   -3.0947    2.8446 H         1 <0>         0.0000
@<TRIPOS>BOND
     1    1    5 ar
     2    1    8 ar
     3    1   29 1
     4    2    6 ar
     5    2    8 ar
     6    2   30 1
     7    3    4 ar
     8    3    9 ar
     9    3   31 1
    10    4   11 ar
    11    4   32 1
    12    5   12 ar
    13    5   33 1
    14    6   12 ar
    15    6   34 1
    16    7   10 ar
    17    7   11 ar
    18    7   35 1
    19    8   13 1
    20    9   10 ar
    21    9   14 1
    22   10   15 1
    23   11   27 1
    24   12   28 1
    25   13   21 1
    26   13   26 2
    27   14   16 1
    28   14   36 1
    29   14   37 1
    30   15   16 1
    31   15   38 1
    32   15   39 1
    33   16   40 1
    34   16   41 1
    35   17   19 1
    36   17   21 1
    37   17   42 1
    38   17   43 1
    39   18   20 1
    40   18   21 1
    41   18   44 1
    42   18   45 1
    43   19   25 1
    44   19   46 1
    45   19   47 1
    46   20   25 1
    47   20   48 1
    48   20   49 1
    49   21   50 1
    50   22   23 1
    51   22   24 1
    52   22   51 1
    53   22   52 1
    54   23   25 1
    55   23   53 1
    56   23   54 1
    57   24   27 1
    58   24   55 1
    59   24   56 1
    60   25   57 1
