@<TRIPOS>MOLECULE
*****
   46    47     0     0     0
SMALL
NO_CHARGES

@<TRIPOS>ATOM
      1 C1         -3.8527    3.3527   -3.2357 C.ar      1 <0>         0.0000
      2 C2         -2.5793    3.8948   -3.0335 C.ar      1 <0>         0.0000
      3 C3         -4.0358    1.9690   -3.1374 C.ar      1 <0>         0.0000
      4 C4         -1.5015    3.0595   -2.7263 C.ar      1 <0>         0.0000
      5 C5         -2.9549    1.1388   -2.8291 C.ar      1 <0>         0.0000
      6 C6         -1.6762    1.6723   -2.6118 C.ar      1 <0>         0.0000
      7 C7         -0.5010    1.8940    0.0304 C.2       1 <0>         0.0000
      8 C8         -1.5682   -0.4432   -0.1536 C.3       1 <0>         0.0000
      9 C9         -0.8782   -1.0041    1.0834 C.3       1 <0>         0.0000
     10 C10        -0.4905    0.5157   -0.6685 C.3       1 <0>         0.0000
     11 C11        -3.4030    3.8776    0.9167 C.3       1 <0>         0.0000
     12 C12         1.2905   -2.2102    2.6719 C.3       1 <0>         0.0000
     13 C13         2.9000   -1.4287    0.9125 C.3       1 <0>         0.0000
     14 C14         1.6742    0.2647    2.3111 C.3       1 <0>         0.0000
     15 C15        -0.5239    0.7876   -2.1922 C.3       1 <0>         0.0000
     16 C16        -1.9102    3.6070    0.9007 C.3       1 <0>         0.0000
     17 C17         1.5784   -1.1142    1.6317 C.3       1 <0>         0.0000
     18 N1          0.4983   -1.2176    0.6145 N.3       1 <0>         0.0000
     19 O1          0.4699    2.6204    0.1004 O.2       1 <0>         0.0000
     20 O2          0.7381   -0.1533   -0.3937 O.3       1 <0>         0.0000
     21 O3         -1.7306    2.2333    0.4666 O.3       1 <0>         0.0000
     22 H1         -4.6921    4.0001   -3.4762 H         1 <0>         0.0000
     23 H2         -2.4244    4.9677   -3.1176 H         1 <0>         0.0000
     24 H3         -5.0197    1.5373   -3.3035 H         1 <0>         0.0000
     25 H4         -0.5155    3.4875   -2.5619 H         1 <0>         0.0000
     26 H5         -3.1067    0.0643   -2.7549 H         1 <0>         0.0000
     27 H6         -1.7210   -1.2369   -0.8904 H         1 <0>         0.0000
     28 H7         -2.5169    0.0441    0.0602 H         1 <0>         0.0000
     29 H8         -0.9584   -0.2904    1.9164 H         1 <0>         0.0000
     30 H9         -1.2964   -1.9617    1.4020 H         1 <0>         0.0000
     31 H10        -3.8233    3.7416   -0.0839 H         1 <0>         0.0000
     32 H11        -3.9185    3.2043    1.6083 H         1 <0>         0.0000
     33 H12        -3.5886    4.9082    1.2370 H         1 <0>         0.0000
     34 H13         0.3981   -1.9884    3.2658 H         1 <0>         0.0000
     35 H14         1.1524   -3.1803    2.1839 H         1 <0>         0.0000
     36 H15         2.1354   -2.2898    3.3626 H         1 <0>         0.0000
     37 H16         3.1130   -0.6749    0.1513 H         1 <0>         0.0000
     38 H17         2.8424   -2.4060    0.4235 H         1 <0>         0.0000
     39 H18         3.7277   -1.4417    1.6294 H         1 <0>         0.0000
     40 H19         1.8536    1.0495    1.5741 H         1 <0>         0.0000
     41 H20         0.7663    0.5153    2.8701 H         1 <0>         0.0000
     42 H21         2.5028    0.2644    3.0271 H         1 <0>         0.0000
     43 H22        -0.5644   -0.1859   -2.6895 H         1 <0>         0.0000
     44 H23         0.4297    1.2543   -2.4527 H         1 <0>         0.0000
     45 H24        -1.4520    3.7205    1.8879 H         1 <0>         0.0000
     46 H25        -1.3829    4.2613    0.2030 H         1 <0>         0.0000
@<TRIPOS>BOND
     1    1    3 ar
     2    1    2 ar
     3    1   22 1
     4    2    4 ar
     5    2   23 1
     6    3    5 ar
     7    3   24 1
     8    4    6 ar
     9    4   25 1
    10    5    6 ar
    11    5   26 1
    12    6   15 1
    13    7   10 1
    14    7   19 2
    15    7   21 1
    16    8    9 1
    17    8   10 1
    18    8   27 1
    19    8   28 1
    20    9   18 1
    21    9   29 1
    22    9   30 1
    23   10   15 1
    24   10   20 1
    25   11   16 1
    26   11   31 1
    27   11   32 1
    28   11   33 1
    29   12   17 1
    30   12   34 1
    31   12   35 1
    32   12   36 1
    33   13   17 1
    34   13   37 1
    35   13   38 1
    36   13   39 1
    37   14   17 1
    38   14   40 1
    39   14   41 1
    40   14   42 1
    41   15   43 1
    42   15   44 1
    43   16   21 1
    44   16   45 1
    45   16   46 1
    46   17   18 1
    47   18   20 1
