@<TRIPOS>MOLECULE
*****
   56    59     0     0     0
SMALL
NO_CHARGES

@<TRIPOS>ATOM
      1 C1         -0.1654   -5.2247    7.5809 C.ar      1 <0>         0.0000
      2 C2          4.4165   -7.7929   -0.4362 C.ar      1 <0>         0.0000
      3 C3          1.2332   -5.2569    7.6433 C.ar      1 <0>         0.0000
      4 C4         -0.7964   -5.0950    6.3409 C.ar      1 <0>         0.0000
      5 C5          3.4000   -8.6427    0.0166 C.ar      1 <0>         0.0000
      6 C6          4.4216   -6.4529   -0.0398 C.ar      1 <0>         0.0000
      7 C7          0.4429   -1.4588    2.1327 C.ar      1 <0>         0.0000
      8 C8          0.1372   -2.6953    0.1074 C.ar      1 <0>         0.0000
      9 C9          1.9879   -5.1597    6.4722 C.ar      1 <0>         0.0000
     10 C10        -0.0369   -4.9959    5.1695 C.ar      1 <0>         0.0000
     11 C11         2.3994   -8.1504    0.8573 C.ar      1 <0>         0.0000
     12 C12         3.4167   -5.9626    0.8019 C.ar      1 <0>         0.0000
     13 C13         0.9105   -2.6006    2.7762 C.ar      1 <0>         0.0000
     14 C14         0.6168   -3.8487    0.7295 C.ar      1 <0>         0.0000
     15 C15         0.0420   -1.4718    0.7854 C.ar      1 <0>         0.0000
     16 C16         1.3605   -5.0262    5.2249 C.ar      1 <0>         0.0000
     17 C17         2.3966   -6.8057    1.2556 C.ar      1 <0>         0.0000
     18 C18         1.0130   -3.8309    2.0846 C.ar      1 <0>         0.0000
     19 C19         1.7173    0.4223   -1.1569 C.2       1 <0>         0.0000
     20 C20        -2.3009    0.7576   -0.5474 C.3       1 <0>         0.0000
     21 C21        -1.6479    0.5204    0.8403 C.3       1 <0>         0.0000
     22 C22        -1.3565   -0.3216   -1.1424 C.3       1 <0>         0.0000
     23 C23        -0.4532   -0.2011    0.1271 C.3       1 <0>         0.0000
     24 C24         2.2143   -4.9074    3.9683 C.3       1 <0>         0.0000
     25 C25         1.2779   -6.2965    2.1558 C.3       1 <0>         0.0000
     26 C26         0.6934    0.8175   -0.0996 C.3       1 <0>         0.0000
     27 N1          1.4853   -4.9736    2.7156 N.pl3     1 <0>         0.0000
     28 O1          1.9357    1.0792   -2.1520 O.2       1 <0>         0.0000
     29 O2          2.4193   -0.7208   -0.9280 O.3       1 <0>         0.0000
     30 H1         -0.7551   -5.3018    8.4907 H         1 <0>         0.0000
     31 H2          5.1966   -8.1736   -1.0904 H         1 <0>         0.0000
     32 H3          1.7335   -5.3611    8.6028 H         1 <0>         0.0000
     33 H4         -1.8817   -5.0689    6.2827 H         1 <0>         0.0000
     34 H5          3.3898   -9.6878   -0.2829 H         1 <0>         0.0000
     35 H6          5.2054   -5.7849   -0.3878 H         1 <0>         0.0000
     36 H7          0.3679   -0.5357    2.7042 H         1 <0>         0.0000
     37 H8         -0.1344   -2.7519   -0.9430 H         1 <0>         0.0000
     38 H9          3.0749   -5.1902    6.5274 H         1 <0>         0.0000
     39 H10        -0.5310   -4.8913    4.2081 H         1 <0>         0.0000
     40 H11         1.6141   -8.8178    1.2092 H         1 <0>         0.0000
     41 H12         3.4236   -4.9199    1.1050 H         1 <0>         0.0000
     42 H13         1.1624   -2.5431    3.8294 H         1 <0>         0.0000
     43 H14         0.7172   -4.7544    0.1419 H         1 <0>         0.0000
     44 H15        -2.0970    1.7557   -0.9437 H         1 <0>         0.0000
     45 H16        -3.3742    0.5673   -0.6237 H         1 <0>         0.0000
     46 H17        -1.4044    1.3987    1.4469 H         1 <0>         0.0000
     47 H18        -2.2214   -0.1831    1.4499 H         1 <0>         0.0000
     48 H19        -1.8492   -1.2956   -1.1950 H         1 <0>         0.0000
     49 H20        -0.8863   -0.1096   -2.1067 H         1 <0>         0.0000
     50 H21         2.7891   -3.9754    4.0004 H         1 <0>         0.0000
     51 H22         2.9599   -5.7109    3.9653 H         1 <0>         0.0000
     52 H23         0.3298   -6.3069    1.6071 H         1 <0>         0.0000
     53 H24         1.1423   -6.9962    2.9887 H         1 <0>         0.0000
     54 H25         0.2843    1.7760   -0.4241 H         1 <0>         0.0000
     55 H26         1.2152    0.9827    0.8511 H         1 <0>         0.0000
     56 H27         2.0451   -1.1871   -0.1552 H         1 <0>         0.0000
@<TRIPOS>BOND
     1    1    4 ar
     2    1    3 ar
     3    1   30 1
     4    2    6 ar
     5    2    5 ar
     6    2   31 1
     7    3    9 ar
     8    3   32 1
     9    4   10 ar
    10    4   33 1
    11    5   11 ar
    12    5   34 1
    13    6   12 ar
    14    6   35 1
    15    7   13 ar
    16    7   15 ar
    17    7   36 1
    18    8   14 ar
    19    8   15 ar
    20    8   37 1
    21    9   16 ar
    22    9   38 1
    23   10   16 ar
    24   10   39 1
    25   11   17 ar
    26   11   40 1
    27   12   17 ar
    28   12   41 1
    29   13   18 ar
    30   13   42 1
    31   14   18 ar
    32   14   43 1
    33   15   23 1
    34   16   24 1
    35   17   25 1
    36   18   27 1
    37   19   26 1
    38   19   28 2
    39   19   29 1
    40   20   22 1
    41   20   21 1
    42   20   44 1
    43   20   45 1
    44   21   23 1
    45   21   46 1
    46   21   47 1
    47   22   23 1
    48   22   48 1
    49   22   49 1
    50   23   26 1
    51   24   27 1
    52   24   50 1
    53   24   51 1
    54   25   27 1
    55   25   52 1
    56   25   53 1
    57   26   54 1
    58   26   55 1
    59   29   56 1
