@<TRIPOS>MOLECULE
*****
   50    50     0     0     0
SMALL
NO_CHARGES

@<TRIPOS>ATOM
      1 C1         -4.1626   -1.5241   -0.6639 C.2       1 <0>         0.0000
      2 C2         -6.4009   -3.1299   -1.6257 C.2       1 <0>         0.0000
      3 C3         -3.4624   -0.6673    0.3705 C.3       1 <0>         0.0000
      4 C4         -4.5863    0.2027    0.9605 C.3       1 <0>         0.0000
      5 C5         -5.6949    0.1877   -0.1188 C.3       1 <0>         0.0000
      6 C6         -3.3999   -7.3071    0.0527 C.3       1 <0>         0.0000
      7 C7         -4.0029   -5.0031    0.9325 C.3       1 <0>         0.0000
      8 C8         -1.9260   -4.5962   -2.7526 C.3       1 <0>         0.0000
      9 C9         -3.6000   -5.9232   -4.0719 C.3       1 <0>         0.0000
     10 C10        -6.3067   -1.6179   -1.8547 C.3       1 <0>         0.0000
     11 C11        -6.3299   -5.3533   -2.6820 C.3       1 <0>         0.0000
     12 C12        -5.3508   -6.0477   -1.7111 C.3       1 <0>         0.0000
     13 C13        -3.3605   -5.7997   -0.2006 C.3       1 <0>         0.0000
     14 C14        -2.9671   -5.7171   -2.6982 C.3       1 <0>         0.0000
     15 C15        -5.6525    1.4280   -1.0188 C.3       1 <0>         0.0000
     16 N1         -5.4064   -1.0201   -0.8842 N.am      1 <0>         0.0000
     17 N2         -6.2064   -3.9046   -2.7315 N.am      1 <0>         0.0000
     18 N3         -3.9817   -5.4256   -1.5719 N.4       1 <0>         0.0000
     19 O1         -3.7125   -2.5285   -1.2333 O.2       1 <0>         0.0000
     20 O2         -6.6292   -3.6116   -0.5199 O.2       1 <0>         0.0000
     21 F1         -5.9304    2.5383   -0.3120 F         1 <0>         0.0000
     22 F2         -4.4360    1.5854   -1.5930 F         1 <0>         0.0000
     23 F3         -6.5608    1.3338   -2.0221 F         1 <0>         0.0000
     24 H1         -2.9597   -1.2972    1.1068 H         1 <0>         0.0000
     25 H2         -2.6949   -0.0761   -0.1386 H         1 <0>         0.0000
     26 H3         -4.9839   -0.2520    1.8699 H         1 <0>         0.0000
     27 H4         -4.2677    1.2162    1.2046 H         1 <0>         0.0000
     28 H5         -6.6989    0.1444    0.3119 H         1 <0>         0.0000
     29 H6         -4.4065   -7.6606    0.2879 H         1 <0>         0.0000
     30 H7         -3.0062   -7.8971   -0.7792 H         1 <0>         0.0000
     31 H8         -2.7710   -7.5184    0.9213 H         1 <0>         0.0000
     32 H9         -5.0583   -5.2426    1.0768 H         1 <0>         0.0000
     33 H10        -3.9147   -3.9309    0.7613 H         1 <0>         0.0000
     34 H11        -3.4747   -5.2503    1.8577 H         1 <0>         0.0000
     35 H12        -2.3722   -3.6639   -3.1053 H         1 <0>         0.0000
     36 H13        -1.4573   -4.3942   -1.7882 H         1 <0>         0.0000
     37 H14        -1.1377   -4.8905   -3.4499 H         1 <0>         0.0000
     38 H15        -4.0982   -5.0192   -4.4318 H         1 <0>         0.0000
     39 H16        -4.2929   -6.7657   -4.1059 H         1 <0>         0.0000
     40 H17        -2.7934   -6.1465   -4.7752 H         1 <0>         0.0000
     41 H18        -5.9844   -1.3791   -2.8739 H         1 <0>         0.0000
     42 H19        -7.3038   -1.1967   -1.7136 H         1 <0>         0.0000
     43 H20        -6.2188   -5.7240   -3.6983 H         1 <0>         0.0000
     44 H21        -7.3333   -5.6283   -2.3403 H         1 <0>         0.0000
     45 H22        -5.2222   -7.0911   -2.0001 H         1 <0>         0.0000
     46 H23        -5.7901   -6.0155   -0.7188 H         1 <0>         0.0000
     47 H24        -2.3220   -5.4833   -0.2946 H         1 <0>         0.0000
     48 H25        -2.4898   -6.6525   -2.4009 H         1 <0>         0.0000
     49 H26        -6.0205   -3.4609   -3.6208 H         1 <0>         0.0000
     50 H27        -4.0995   -4.3959   -1.5455 H         1 <0>         0.0000
@<TRIPOS>BOND
     1    1    3 1
     2    1   16 am
     3    1   19 2
     4    2   10 1
     5    2   17 am
     6    2   20 2
     7    3    4 1
     8    3   24 1
     9    3   25 1
    10    4    5 1
    11    4   26 1
    12    4   27 1
    13    5   15 1
    14    5   16 1
    15    5   28 1
    16    6   13 1
    17    6   29 1
    18    6   30 1
    19    6   31 1
    20    7   13 1
    21    7   32 1
    22    7   33 1
    23    7   34 1
    24    8   14 1
    25    8   35 1
    26    8   36 1
    27    8   37 1
    28    9   14 1
    29    9   38 1
    30    9   39 1
    31    9   40 1
    32   10   16 1
    33   10   41 1
    34   10   42 1
    35   11   12 1
    36   11   17 1
    37   11   43 1
    38   11   44 1
    39   12   18 1
    40   12   45 1
    41   12   46 1
    42   13   18 1
    43   13   47 1
    44   14   18 1
    45   14   48 1
    46   15   21 1
    47   15   22 1
    48   15   23 1
    49   17   49 1
    50   18   50 1
