@<TRIPOS>MOLECULE
*****
   50    52     0     0     0
SMALL
NO_CHARGES

@<TRIPOS>ATOM
      1 C1         -9.7598    4.5108    8.3719 C.ar      1 <0>         0.0000
      2 C2         -7.8256   -0.0559    2.0514 C.ar      1 <0>         0.0000
      3 C3         -8.7767    5.1166    9.1217 C.ar      1 <0>         0.0000
      4 C4         -8.4904    0.7887    2.9468 C.ar      1 <0>         0.0000
      5 C5         -6.6335   -0.6812    2.4227 C.ar      1 <0>         0.0000
      6 C6         -9.4387    3.6486    7.2953 C.ar      1 <0>         0.0000
      7 C7         -5.0462    5.1714    9.1876 C.ar      1 <0>         0.0000
      8 C8         -6.7901    0.3431    4.6036 C.ar      1 <0>         0.0000
      9 C9         -4.8149    4.2930    8.1012 C.ar      1 <0>         0.0000
     10 C10        -7.4058    4.8789    8.8220 C.ar      1 <0>         0.0000
     11 C11        -7.9737    0.9904    4.2304 C.ar      1 <0>         0.0000
     12 C12        -6.1039   -0.4783    3.7049 C.ar      1 <0>         0.0000
     13 C13        -6.3387    5.4769    9.5646 C.ar      1 <0>         0.0000
     14 C14        -7.0586    4.0087    7.7401 C.ar      1 <0>         0.0000
     15 C15        -8.1144    3.3966    6.9762 C.ar      1 <0>         0.0000
     16 C16        -6.6175    6.4070   10.7176 C.3       1 <0>         0.0000
     17 C17        -2.3502    3.3067    5.2638 C.3       1 <0>         0.0000
     18 C18        -8.6910    1.8780    5.2167 C.3       1 <0>         0.0000
     19 C19        -2.3951    2.0768    4.3501 C.3       1 <0>         0.0000
     20 C20        -3.5831    1.1591    4.6613 C.3       1 <0>         0.0000
     21 C21        -3.6013   -0.1063    3.7977 C.3       1 <0>         0.0000
     22 C22        -4.7664   -1.0708    4.0953 C.3       1 <0>         0.0000
     23 N1         -5.7718    3.7246    7.3939 N.ar      1 <0>         0.0000
     24 O1         -4.6019   -2.3016    3.3742 O.3       1 <0>         0.0000
     25 O2         -7.7043    2.5945    5.9634 O.3       1 <0>         0.0000
     26 H1        -10.8068    4.6920    8.6009 H         1 <0>         0.0000
     27 H2         -8.2332   -0.2158    1.0563 H         1 <0>         0.0000
     28 H3         -9.0476    5.7743    9.9406 H         1 <0>         0.0000
     29 H4         -9.4060    1.2920    2.6422 H         1 <0>         0.0000
     30 H5         -6.1112   -1.3337    1.7307 H         1 <0>         0.0000
     31 H6        -10.2423    3.1963    6.7261 H         1 <0>         0.0000
     32 H7         -4.1983    5.5984    9.7173 H         1 <0>         0.0000
     33 H8         -6.3918    0.5142    5.5997 H         1 <0>         0.0000
     34 H9         -3.7921    4.0571    7.8097 H         1 <0>         0.0000
     35 H10        -7.1971    7.2785   10.3938 H         1 <0>         0.0000
     36 H11        -7.1961    5.9058   11.5014 H         1 <0>         0.0000
     37 H12        -5.6863    6.7663   11.1622 H         1 <0>         0.0000
     38 H13        -2.2133    3.0071    6.3096 H         1 <0>         0.0000
     39 H14        -1.5245    3.9757    4.9972 H         1 <0>         0.0000
     40 H15        -3.2846    3.8748    5.2042 H         1 <0>         0.0000
     41 H16        -9.3543    2.5783    4.6931 H         1 <0>         0.0000
     42 H17        -9.3032    1.2803    5.9073 H         1 <0>         0.0000
     43 H18        -2.4544    2.3989    3.3022 H         1 <0>         0.0000
     44 H19        -1.4566    1.5139    4.4450 H         1 <0>         0.0000
     45 H20        -4.5117    1.7225    4.5262 H         1 <0>         0.0000
     46 H21        -3.5539    0.8768    5.7229 H         1 <0>         0.0000
     47 H22        -2.6607   -0.6553    3.9595 H         1 <0>         0.0000
     48 H23        -3.6359    0.1566    2.7334 H         1 <0>         0.0000
     49 H24        -4.7776   -1.2792    5.1761 H         1 <0>         0.0000
     50 H25        -3.6914   -2.6043    3.5156 H         1 <0>         0.0000
@<TRIPOS>BOND
     1    1    3 ar
     2    1    6 ar
     3    1   26 1
     4    2    4 ar
     5    2    5 ar
     6    2   27 1
     7    3   10 ar
     8    3   28 1
     9    4   11 ar
    10    4   29 1
    11    5   12 ar
    12    5   30 1
    13    6   15 ar
    14    6   31 1
    15    7    9 ar
    16    7   13 ar
    17    7   32 1
    18    8   11 ar
    19    8   12 ar
    20    8   33 1
    21    9   23 ar
    22    9   34 1
    23   10   13 ar
    24   10   14 ar
    25   11   18 1
    26   12   22 1
    27   13   16 1
    28   14   15 ar
    29   14   23 ar
    30   15   25 1
    31   16   35 1
    32   16   36 1
    33   16   37 1
    34   17   19 1
    35   17   38 1
    36   17   39 1
    37   17   40 1
    38   18   25 1
    39   18   41 1
    40   18   42 1
    41   19   20 1
    42   19   43 1
    43   19   44 1
    44   20   21 1
    45   20   45 1
    46   20   46 1
    47   21   22 1
    48   21   47 1
    49   21   48 1
    50   22   24 1
    51   22   49 1
    52   24   50 1
