@<TRIPOS>MOLECULE
*****
   29    30     0     0     0
SMALL
NO_CHARGES

@<TRIPOS>ATOM
      1 C1          2.0109   -1.0527   -0.0312 C.ar      1 <0>         0.0000
      2 C2          2.4533   -3.5120    8.7025 C.ar      1 <0>         0.0000
      3 C3          3.1457   -1.3005    0.7490 C.ar      1 <0>         0.0000
      4 C4          0.7792   -0.8313    0.5928 C.ar      1 <0>         0.0000
      5 C5          3.5168   -3.8108    7.8396 C.ar      1 <0>         0.0000
      6 C6          1.4340   -2.6714    8.2532 C.ar      1 <0>         0.0000
      7 C7          3.0531   -1.3209    2.1435 C.ar      1 <0>         0.0000
      8 C8          0.6874   -0.8575    1.9877 C.ar      1 <0>         0.0000
      9 C9          3.5573   -3.2773    6.5536 C.ar      1 <0>         0.0000
     10 C10         1.4611   -2.1265    6.9628 C.ar      1 <0>         0.0000
     11 C11         1.8213   -1.0990    2.7731 C.ar      1 <0>         0.0000
     12 C12         2.5284   -2.4322    6.1056 C.ar      1 <0>         0.0000
     13 C13         1.9913    0.3636    4.8133 C.3       1 <0>         0.0000
     14 C14         1.7109   -1.0482    4.2830 C.3       1 <0>         0.0000
     15 O1          2.6621   -1.9844    4.8177 O.3       1 <0>         0.0000
     16 H1          2.0848   -1.0381   -1.1156 H         1 <0>         0.0000
     17 H2          2.4233   -3.9272    9.7058 H         1 <0>         0.0000
     18 H3          4.1049   -1.4803    0.2699 H         1 <0>         0.0000
     19 H4         -0.1098   -0.6463   -0.0048 H         1 <0>         0.0000
     20 H5          4.3197   -4.4646    8.1708 H         1 <0>         0.0000
     21 H6          0.6021   -2.4277    8.9093 H         1 <0>         0.0000
     22 H7          3.9314   -1.5238    2.7481 H         1 <0>         0.0000
     23 H8         -0.2760   -0.6929    2.4670 H         1 <0>         0.0000
     24 H9          4.3731   -3.5043    5.8732 H         1 <0>         0.0000
     25 H10         0.6537   -1.4749    6.6496 H         1 <0>         0.0000
     26 H11         2.9898    0.6816    4.4998 H         1 <0>         0.0000
     27 H12         1.9399    0.3996    5.9048 H         1 <0>         0.0000
     28 H13         1.2621    1.0697    4.4043 H         1 <0>         0.0000
     29 H14         0.6991   -1.3632    4.5636 H         1 <0>         0.0000
@<TRIPOS>BOND
     1    1    4 ar
     2    1    3 ar
     3    1   16 1
     4    2    6 ar
     5    2    5 ar
     6    2   17 1
     7    3    7 ar
     8    3   18 1
     9    4    8 ar
    10    4   19 1
    11    5    9 ar
    12    5   20 1
    13    6   10 ar
    14    6   21 1
    15    7   11 ar
    16    7   22 1
    17    8   11 ar
    18    8   23 1
    19    9   12 ar
    20    9   24 1
    21   10   12 ar
    22   10   25 1
    23   11   14 1
    24   12   15 1
    25   13   14 1
    26   13   26 1
    27   13   27 1
    28   13   28 1
    29   14   15 1
    30   14   29 1
