@<TRIPOS>MOLECULE
*****
   26    27     0     0     0
SMALL
NO_CHARGES

@<TRIPOS>ATOM
      1 C1          1.5519   -1.0385   -0.2161 C.ar      1 <0>         0.0000
      2 C2          0.4482   -0.5086    0.4622 C.ar      1 <0>         0.0000
      3 C3          2.6093   -1.5919    0.5072 C.ar      1 <0>         0.0000
      4 C4          0.4180   -0.5080    1.8585 C.ar      1 <0>         0.0000
      5 C5          4.9017   -3.4761    3.9066 C.2       1 <0>         0.0000
      6 C6          5.6684   -2.4781    3.2558 C.2       1 <0>         0.0000
      7 C7          2.5739   -1.6119    1.9046 C.ar      1 <0>         0.0000
      8 C8          1.4844   -1.0429    2.5880 C.ar      1 <0>         0.0000
      9 C9          3.5991   -3.2776    3.4733 C.2       1 <0>         0.0000
     10 C10         2.3414   -4.0299    3.7708 C.3       1 <0>         0.0000
     11 C11         2.3682   -0.1664    4.6122 C.3       1 <0>         0.0000
     12 N1          4.9164   -1.7061    2.4728 N.2       1 <0>         0.0000
     13 N2          3.6501   -2.2033    2.6210 N.pl3     1 <0>         0.0000
     14 O1          1.4138   -1.0288    3.9635 O.3       1 <0>         0.0000
     15 H1          1.5849   -1.0294   -1.3018 H         1 <0>         0.0000
     16 H2         -0.3842   -0.0867   -0.0947 H         1 <0>         0.0000
     17 H3          3.4733   -2.0178    0.0064 H         1 <0>         0.0000
     18 H4         -0.4189   -0.0857    2.4072 H         1 <0>         0.0000
     19 H5          5.2438   -4.2466    4.5847 H         1 <0>         0.0000
     20 H6          6.7330   -2.2884    3.3233 H         1 <0>         0.0000
     21 H7          1.6573   -3.4351    4.3825 H         1 <0>         0.0000
     22 H8          1.8136   -4.2972    2.8493 H         1 <0>         0.0000
     23 H9          2.5831   -4.9510    4.3060 H         1 <0>         0.0000
     24 H10         2.1681   -0.2506    5.6817 H         1 <0>         0.0000
     25 H11         2.2198    0.8706    4.2887 H         1 <0>         0.0000
     26 H12         3.3969   -0.4721    4.4034 H         1 <0>         0.0000
@<TRIPOS>BOND
     1    1    2 ar
     2    1    3 ar
     3    1   15 1
     4    2    4 ar
     5    2   16 1
     6    3    7 ar
     7    3   17 1
     8    4    8 ar
     9    4   18 1
    10    5    6 1
    11    5    9 2
    12    5   19 1
    13    6   12 2
    14    6   20 1
    15    7    8 ar
    16    7   13 1
    17    8   14 1
    18    9   10 1
    19    9   13 1
    20   10   21 1
    21   10   22 1
    22   10   23 1
    23   11   14 1
    24   11   24 1
    25   11   25 1
    26   11   26 1
    27   12   13 1
