@<TRIPOS>MOLECULE
*****
   23    24     0     0     0
SMALL
NO_CHARGES

@<TRIPOS>ATOM
      1 C1          2.0755   -0.9934   -0.1511 C.ar      1 <0>         0.0000
      2 C2          1.6547    0.1554    0.5242 C.ar      1 <0>         0.0000
      3 C3          2.3017   -2.1633    0.5834 C.ar      1 <0>         0.0000
      4 C4          0.6700    0.2303    7.3274 C.ar      1 <0>         0.0000
      5 C5          0.3499    1.5495    6.9666 C.ar      1 <0>         0.0000
      6 C6          1.4564    0.1599    1.9081 C.ar      1 <0>         0.0000
      7 C7          2.1091   -2.1764    1.9629 C.ar      1 <0>         0.0000
      8 C8          1.0608   -0.6657    6.3460 C.ar      1 <0>         0.0000
      9 C9          0.4455    1.8867    5.6201 C.ar      1 <0>         0.0000
     10 C10         1.6844   -1.0172    2.6444 C.ar      1 <0>         0.0000
     11 C11         1.1256   -0.2198    5.0009 C.ar      1 <0>         0.0000
     12 N1          0.8215    1.0372    4.6504 N.ar      1 <0>         0.0000
     13 N2          1.5186   -1.1316    4.0352 N.pl3     1 <0>         0.0000
     14 H1          2.2248   -0.9801   -1.2271 H         1 <0>         0.0000
     15 H2          1.4744    1.0727   -0.0311 H         1 <0>         0.0000
     16 H3          2.6295   -3.0706    0.0823 H         1 <0>         0.0000
     17 H4          0.6137   -0.0910    8.3644 H         1 <0>         0.0000
     18 H5          0.0392    2.2841    7.7025 H         1 <0>         0.0000
     19 H6          1.1310    1.0522    2.4223 H         1 <0>         0.0000
     20 H7          2.2888   -3.0934    2.5226 H         1 <0>         0.0000
     21 H8          1.3142   -1.6932    6.5975 H         1 <0>         0.0000
     22 H9          0.2083    2.8967    5.2880 H         1 <0>         0.0000
     23 H10         1.7266   -2.0519    4.3986 H         1 <0>         0.0000
@<TRIPOS>BOND
     1    1    3 ar
     2    1    2 ar
     3    1   14 1
     4    2    6 ar
     5    2   15 1
     6    3    7 ar
     7    3   16 1
     8    4    5 ar
     9    4    8 ar
    10    4   17 1
    11    5    9 ar
    12    5   18 1
    13    6   10 ar
    14    6   19 1
    15    7   10 ar
    16    7   20 1
    17    8   11 ar
    18    8   21 1
    19    9   12 ar
    20    9   22 1
    21   10   13 1
    22   11   12 ar
    23   11   13 1
    24   13   23 1
