@<TRIPOS>MOLECULE
*****
   22    23     0     0     0
SMALL
NO_CHARGES

@<TRIPOS>ATOM
      1 C1          1.8866   -1.0359   -0.1654 C.ar      1 <0>         0.0000
      2 C2          1.6677   -1.1444    6.9626 C.ar      1 <0>         0.0000
      3 C3          2.8745   -1.7094    0.5609 C.ar      1 <0>         0.0000
      4 C4          0.8554   -0.3839    0.5191 C.ar      1 <0>         0.0000
      5 C5          0.4877   -1.2487    6.2187 C.ar      1 <0>         0.0000
      6 C6          2.8911   -1.0187    6.2959 C.ar      1 <0>         0.0000
      7 C7          2.8307   -1.7304    1.9567 C.ar      1 <0>         0.0000
      8 C8          0.8134   -0.4054    1.9149 C.ar      1 <0>         0.0000
      9 C9          0.5315   -1.2276    4.8229 C.ar      1 <0>         0.0000
     10 C10         2.9330   -0.9973    4.9001 C.ar      1 <0>         0.0000
     11 C11         1.7999   -1.0789    2.6571 C.ar      1 <0>         0.0000
     12 C12         1.7544   -1.1014    4.1401 C.ar      1 <0>         0.0000
     13 H1          1.9199   -1.0194   -1.2516 H         1 <0>         0.0000
     14 H2          1.6344   -1.1609    8.0489 H         1 <0>         0.0000
     15 H3          3.6752   -2.2279    0.0394 H         1 <0>         0.0000
     16 H4          0.0877    0.1509   -0.0346 H         1 <0>         0.0000
     17 H5         -0.4678   -1.3566    6.7259 H         1 <0>         0.0000
     18 H6          3.8136   -0.9271    6.8639 H         1 <0>         0.0000
     19 H7          3.5879   -2.2806    2.5089 H         1 <0>         0.0000
     20 H8          0.0233    0.1285    2.4361 H         1 <0>         0.0000
     21 H9         -0.3889   -1.3378    4.2556 H         1 <0>         0.0000
     22 H10         3.8863   -0.8708    4.3940 H         1 <0>         0.0000
@<TRIPOS>BOND
     1    1    4 ar
     2    1    3 ar
     3    1   13 1
     4    2    6 ar
     5    2    5 ar
     6    2   14 1
     7    3    7 ar
     8    3   15 1
     9    4    8 ar
    10    4   16 1
    11    5    9 ar
    12    5   17 1
    13    6   10 ar
    14    6   18 1
    15    7   11 ar
    16    7   19 1
    17    8   11 ar
    18    8   20 1
    19    9   12 ar
    20    9   21 1
    21   10   12 ar
    22   10   22 1
    23   11   12 1
