@<TRIPOS>MOLECULE
*****
   27    28     0     0     0
SMALL
NO_CHARGES

@<TRIPOS>ATOM
      1 C1          2.3632   -0.9164   -0.2549 C.ar      1 <0>         0.0000
      2 C2         -3.4291   -2.3154    4.1125 C.ar      1 <0>         0.0000
      3 C3          1.9880   -2.1343    0.3215 C.ar      1 <0>         0.0000
      4 C4          2.4711    0.2229    0.5503 C.ar      1 <0>         0.0000
      5 C5         -2.7627   -3.2026    4.9680 C.ar      1 <0>         0.0000
      6 C6         -2.6750   -1.4079    3.3642 C.ar      1 <0>         0.0000
      7 C7          1.7278   -2.2160    1.6929 C.ar      1 <0>         0.0000
      8 C8          2.2051    0.1392    1.9200 C.ar      1 <0>         0.0000
      9 C9         -1.3734   -3.1807    5.0710 C.ar      1 <0>         0.0000
     10 C10        -1.2804   -1.3741    3.4597 C.ar      1 <0>         0.0000
     11 C11         1.8371   -1.0806    2.5037 C.ar      1 <0>         0.0000
     12 C12        -0.6094   -2.2643    4.3195 C.ar      1 <0>         0.0000
     13 C13         1.5919   -1.1523    4.0041 C.3       1 <0>         0.0000
     14 N1          0.7872   -2.2914    4.4220 N.pl3     1 <0>         0.0000
     15 H1          2.5624   -0.8530   -1.3217 H         1 <0>         0.0000
     16 H2         -4.5122   -2.3343    4.0319 H         1 <0>         0.0000
     17 H3          1.8918   -3.0220   -0.2989 H         1 <0>         0.0000
     18 H4          2.7546    1.1762    0.1111 H         1 <0>         0.0000
     19 H5         -3.3289   -3.9170    5.5609 H         1 <0>         0.0000
     20 H6         -3.1730   -0.7137    2.6916 H         1 <0>         0.0000
     21 H7          1.4205   -3.1553    2.1429 H         1 <0>         0.0000
     22 H8          2.2787    1.0320    2.5390 H         1 <0>         0.0000
     23 H9         -0.8671   -3.8779    5.7368 H         1 <0>         0.0000
     24 H10        -0.7212   -0.6714    2.8521 H         1 <0>         0.0000
     25 H11         2.5605   -1.2436    4.5084 H         1 <0>         0.0000
     26 H12         1.1501   -0.2020    4.3420 H         1 <0>         0.0000
     27 H13         1.1140   -2.7324    5.2716 H         1 <0>         0.0000
@<TRIPOS>BOND
     1    1    4 ar
     2    1    3 ar
     3    1   15 1
     4    2    6 ar
     5    2    5 ar
     6    2   16 1
     7    3    7 ar
     8    3   17 1
     9    4    8 ar
    10    4   18 1
    11    5    9 ar
    12    5   19 1
    13    6   10 ar
    14    6   20 1
    15    7   11 ar
    16    7   21 1
    17    8   11 ar
    18    8   22 1
    19    9   12 ar
    20    9   23 1
    21   10   12 ar
    22   10   24 1
    23   11   13 1
    24   12   14 1
    25   13   14 1
    26   13   25 1
    27   13   26 1
    28   14   27 1
