@<TRIPOS>MOLECULE
*****
   16    16     0     0     0
SMALL
NO_CHARGES

@<TRIPOS>ATOM
      1 C1          1.8231   -1.0026   -0.1572 C.ar      1 <0>         0.0000
      2 C2          0.7617   -0.4378    0.5487 C.ar      1 <0>         0.0000
      3 C3          2.8888   -1.6128    0.5193 C.ar      1 <0>         0.0000
      4 C4          0.7629   -0.4821    1.9501 C.ar      1 <0>         0.0000
      5 C5          2.9019   -1.6636    1.9192 C.ar      1 <0>         0.0000
      6 C6          1.8200   -1.0870    2.6096 C.ar      1 <0>         0.0000
      7 C7          4.9858   -2.8167    2.0119 C.3       1 <0>         0.0000
      8 O1          3.8778   -2.2271    2.6859 O.3       1 <0>         0.0000
      9 F1          1.8238   -1.1313    3.9636 F         1 <0>         0.0000
     10 H1          1.8327   -0.9741   -1.2432 H         1 <0>         0.0000
     11 H2         -0.0628    0.0344    0.0232 H         1 <0>         0.0000
     12 H3          3.7034   -2.0455   -0.0504 H         1 <0>         0.0000
     13 H4         -0.0441   -0.0543    2.5375 H         1 <0>         0.0000
     14 H5          5.6387   -3.2010    2.7963 H         1 <0>         0.0000
     15 H6          5.5308   -2.0749    1.4151 H         1 <0>         0.0000
     16 H7          4.6662   -3.6439    1.3662 H         1 <0>         0.0000
@<TRIPOS>BOND
     1    1    2 ar
     2    1    3 ar
     3    1   10 1
     4    2    4 ar
     5    2   11 1
     6    3    5 ar
     7    3   12 1
     8    4    6 ar
     9    4   13 1
    10    5    6 ar
    11    5    8 1
    12    6    9 1
    13    7    8 1
    14    7   14 1
    15    7   15 1
    16    7   16 1
