@<TRIPOS>MOLECULE
*****
   25    25     0     0     0
SMALL
NO_CHARGES

@<TRIPOS>ATOM
      1 C1         -3.5583   -2.6708   -1.9643 C.ar      1 <0>         0.0000
      2 C2         -3.5744   -2.8600   -0.5801 C.ar      1 <0>         0.0000
      3 C3         -2.3739   -2.2628   -2.5908 C.ar      1 <0>         0.0000
      4 C4         -2.4130   -2.6423    0.1710 C.ar      1 <0>         0.0000
      5 C5         -1.2191   -2.0465   -1.8371 C.ar      1 <0>         0.0000
      6 C6         -1.2222   -2.2322   -0.4437 C.ar      1 <0>         0.0000
      7 C7          1.1858   -2.9695    0.0069 C.2       1 <0>         0.0000
      8 C8          0.5233   -0.5445    0.2987 C.3       1 <0>         0.0000
      9 C9          1.7589   -5.2516   -0.7351 C.3       1 <0>         0.0000
     10 C10         0.0383   -2.0001    0.3693 C.3       1 <0>         0.0000
     11 N1          0.7965   -4.2295   -0.3494 N.am      1 <0>         0.0000
     12 O1          2.3688   -2.6443    0.1021 O.2       1 <0>         0.0000
     13 H1         -4.4577   -2.8392   -2.5509 H         1 <0>         0.0000
     14 H2         -4.4881   -3.1760   -0.0833 H         1 <0>         0.0000
     15 H3         -2.3516   -2.1154   -3.6677 H         1 <0>         0.0000
     16 H4         -2.4331   -2.7923    1.2486 H         1 <0>         0.0000
     17 H5         -0.3026   -1.7380   -2.3349 H         1 <0>         0.0000
     18 H6          0.7822   -0.2630   -0.7259 H         1 <0>         0.0000
     19 H7         -0.2641    0.1286    0.6508 H         1 <0>         0.0000
     20 H8          1.4153   -0.4133    0.9139 H         1 <0>         0.0000
     21 H9          2.0143   -5.1929   -1.8006 H         1 <0>         0.0000
     22 H10         1.3441   -6.2403   -0.5218 H         1 <0>         0.0000
     23 H11         2.6724   -5.1100   -0.1561 H         1 <0>         0.0000
     24 H12        -0.1952   -2.2256    1.4178 H         1 <0>         0.0000
     25 H13        -0.1823   -4.3824   -0.5538 H         1 <0>         0.0000
@<TRIPOS>BOND
     1    1    3 ar
     2    1    2 ar
     3    1   13 1
     4    2    4 ar
     5    2   14 1
     6    3    5 ar
     7    3   15 1
     8    4    6 ar
     9    4   16 1
    10    5    6 ar
    11    5   17 1
    12    6   10 1
    13    7   10 1
    14    7   11 am
    15    7   12 2
    16    8   10 1
    17    8   18 1
    18    8   19 1
    19    8   20 1
    20    9   11 1
    21    9   21 1
    22    9   22 1
    23    9   23 1
    24   10   24 1
    25   11   25 1
