@<TRIPOS>MOLECULE
*****
   23    24     0     0     0
SMALL
NO_CHARGES

@<TRIPOS>ATOM
      1 C1          2.1085    0.2045   -0.1124 C.ar      1 <0>         0.0000
      2 C2          0.8102    0.7301   -0.1438 C.ar      1 <0>         0.0000
      3 C3          3.1902    1.0429   -0.3637 C.ar      1 <0>         0.0000
      4 C4          0.6157    2.0835   -0.3983 C.ar      1 <0>         0.0000
      5 C5          3.0236    2.4170   -0.6237 C.ar      1 <0>         0.0000
      6 C6          1.7083    2.9390   -0.6284 C.ar      1 <0>         0.0000
      7 C7          4.2008    3.2574   -0.9770 C.2       1 <0>         0.0000
      8 C8          2.1013    5.4068   -0.4487 C.2       1 <0>         0.0000
      9 C9          3.4077    5.1037    0.2704 C.3       1 <0>         0.0000
     10 C10         5.2674    2.6267   -1.8455 C.3       1 <0>         0.0000
     11 N1          4.3779    4.4784   -0.6204 N.2       1 <0>         0.0000
     12 N2          1.4356    4.2865   -0.9296 N.am      1 <0>         0.0000
     13 O1          1.6433    6.5284   -0.6087 O.2       1 <0>         0.0000
     14 H1          2.2708   -0.8488    0.0972 H         1 <0>         0.0000
     15 H2         -0.0472    0.0876    0.0372 H         1 <0>         0.0000
     16 H3          4.1932    0.6279   -0.3588 H         1 <0>         0.0000
     17 H4         -0.3901    2.4971   -0.4124 H         1 <0>         0.0000
     18 H5          3.8069    6.0540    0.6244 H         1 <0>         0.0000
     19 H6          3.1802    4.4672    1.1394 H         1 <0>         0.0000
     20 H7          4.8298    2.1559   -2.7318 H         1 <0>         0.0000
     21 H8          5.8126    1.8482   -1.2997 H         1 <0>         0.0000
     22 H9          5.9801    3.3952   -2.1475 H         1 <0>         0.0000
     23 H10         0.5035    4.4995   -1.2711 H         1 <0>         0.0000
@<TRIPOS>BOND
     1    1    2 ar
     2    1    3 ar
     3    1   14 1
     4    2    4 ar
     5    2   15 1
     6    3    5 ar
     7    3   16 1
     8    4    6 ar
     9    4   17 1
    10    5    6 ar
    11    5    7 1
    12    6   12 1
    13    7   10 1
    14    7   11 2
    15    8    9 1
    16    8   12 am
    17    8   13 2
    18    9   11 1
    19    9   18 1
    20    9   19 1
    21   10   20 1
    22   10   21 1
    23   10   22 1
    24   12   23 1
