@<TRIPOS>MOLECULE
*****
   27    28     0     0     0
SMALL
NO_CHARGES

@<TRIPOS>ATOM
      1 C1          1.8927   -1.1264   -0.3991 C.ar      1 <0>         0.0000
      2 C2         -1.9486   -4.1538    3.1601 C.ar      1 <0>         0.0000
      3 C3          2.2283   -2.2547    0.3557 C.ar      1 <0>         0.0000
      4 C4          1.6108    0.0821    0.2491 C.ar      1 <0>         0.0000
      5 C5         -1.9313   -2.9507    2.4460 C.ar      1 <0>         0.0000
      6 C6         -1.2267   -4.2785    4.3529 C.ar      1 <0>         0.0000
      7 C7          2.2647   -2.1797    1.7504 C.ar      1 <0>         0.0000
      8 C8          1.6727    0.1730    1.6411 C.ar      1 <0>         0.0000
      9 C9         -1.1894   -1.8646    2.9166 C.ar      1 <0>         0.0000
     10 C10        -0.4750   -3.2026    4.8318 C.ar      1 <0>         0.0000
     11 C11         1.9937   -0.9648    2.3942 C.ar      1 <0>         0.0000
     12 C12        -0.4668   -2.0097    4.1039 C.ar      1 <0>         0.0000
     13 N1          2.0429   -0.8754    3.8194 N.pl3     1 <0>         0.0000
     14 O1          0.9186   -0.8799    6.0672 O.2       1 <0>         0.0000
     15 O2         -0.0121    0.5912    4.1805 O.2       1 <0>         0.0000
     16 S1          0.5708   -0.6575    4.6637 S.o2      1 <0>         0.0000
     17 H1          1.8550   -1.1867   -1.4834 H         1 <0>         0.0000
     18 H2         -2.5309   -4.9938    2.7906 H         1 <0>         0.0000
     19 H3          2.4467   -3.1979   -0.1379 H         1 <0>         0.0000
     20 H4          1.3567    0.9645   -0.3322 H         1 <0>         0.0000
     21 H5         -2.4972   -2.8549    1.5236 H         1 <0>         0.0000
     22 H6         -1.2535   -5.2092    4.9130 H         1 <0>         0.0000
     23 H7          2.4933   -3.0648    2.3402 H         1 <0>         0.0000
     24 H8          1.4663    1.1061    2.1536 H         1 <0>         0.0000
     25 H9         -1.1733   -0.9210    2.3820 H         1 <0>         0.0000
     26 H10         0.0811   -3.2719    5.7618 H         1 <0>         0.0000
     27 H11         2.5545   -1.6374    4.2617 H         1 <0>         0.0000
@<TRIPOS>BOND
     1    1    4 ar
     2    1    3 ar
     3    1   17 1
     4    2    6 ar
     5    2    5 ar
     6    2   18 1
     7    3    7 ar
     8    3   19 1
     9    4    8 ar
    10    4   20 1
    11    5    9 ar
    12    5   21 1
    13    6   10 ar
    14    6   22 1
    15    7   11 ar
    16    7   23 1
    17    8   11 ar
    18    8   24 1
    19    9   12 ar
    20    9   25 1
    21   10   12 ar
    22   10   26 1
    23   11   13 1
    24   12   16 1
    25   13   16 1
    26   13   27 1
    27   14   16 2
    28   15   16 2
