@<TRIPOS>MOLECULE
*****
   20    20     0     0     0
SMALL
NO_CHARGES

@<TRIPOS>ATOM
      1 C1          2.1260   -1.2088   -0.1496 C.ar      1 <0>         0.0000
      2 C2          1.0554   -0.6391    0.5448 C.ar      1 <0>         0.0000
      3 C3          3.1267   -1.8673    0.5674 C.ar      1 <0>         0.0000
      4 C4          0.9691   -0.6958    1.9397 C.ar      1 <0>         0.0000
      5 C5          1.9839   -1.3523    2.6838 C.ar      1 <0>         0.0000
      6 C6          3.0307   -1.9359    1.9499 C.ar      1 <0>         0.0000
      7 C7         -0.2031   -0.0667    2.6569 C.3       1 <0>         0.0000
      8 C8          3.0800   -1.3431    4.9316 C.3       1 <0>         0.0000
      9 N1          1.8906   -1.4585    4.0778 N.pl3     1 <0>         0.0000
     10 F1          4.0017   -2.6295    2.6178 F         1 <0>         0.0000
     11 H1          2.1784   -1.1476   -1.2324 H         1 <0>         0.0000
     12 H2          0.2684   -0.1301   -0.0064 H         1 <0>         0.0000
     13 H3          3.9715   -2.3427    0.0780 H         1 <0>         0.0000
     14 H4         -0.7775   -0.8061    3.2297 H         1 <0>         0.0000
     15 H5          0.1160    0.7175    3.3569 H         1 <0>         0.0000
     16 H6         -0.8884    0.3970    1.9437 H         1 <0>         0.0000
     17 H7          3.7064   -0.4769    4.6733 H         1 <0>         0.0000
     18 H8          3.6925   -2.2421    4.8704 H         1 <0>         0.0000
     19 H9          2.7405   -1.2318    5.9647 H         1 <0>         0.0000
     20 H10         1.1308   -0.8953    4.4352 H         1 <0>         0.0000
@<TRIPOS>BOND
     1    1    2 ar
     2    1    3 ar
     3    1   11 1
     4    2    4 ar
     5    2   12 1
     6    3    6 ar
     7    3   13 1
     8    4    5 ar
     9    4    7 1
    10    5    6 ar
    11    5    9 1
    12    6   10 1
    13    7   14 1
    14    7   15 1
    15    7   16 1
    16    8    9 1
    17    8   17 1
    18    8   18 1
    19    8   19 1
    20    9   20 1
