@<TRIPOS>MOLECULE
*****
   19    19     0     0     0
SMALL
NO_CHARGES

@<TRIPOS>ATOM
      1 C1          5.8592   -1.0176    6.3187 C.ar      1 <0>         0.0000
      2 C2          4.6867   -0.8878    7.0706 C.ar      1 <0>         0.0000
      3 C3          5.7961   -1.1302    4.9247 C.ar      1 <0>         0.0000
      4 C4          3.4432   -0.8787    6.4319 C.ar      1 <0>         0.0000
      5 C5          4.5600   -1.1226    4.2733 C.ar      1 <0>         0.0000
      6 C6          3.4003   -1.0037    5.0422 C.ar      1 <0>         0.0000
      7 C7          1.3587   -2.8039    4.3329 C.3       1 <0>         0.0000
      8 N1          2.0798   -0.5507    2.8245 N.2       1 <0>         0.0000
      9 O1          0.7924   -0.3767    5.1697 O.2       1 <0>         0.0000
     10 S1          1.7798   -1.0250    4.2687 S.o       1 <0>         0.0000
     11 H1          6.8243   -1.0223    6.8185 H         1 <0>         0.0000
     12 H2          4.7387   -0.7844    8.1509 H         1 <0>         0.0000
     13 H3          6.7098   -1.2161    4.3429 H         1 <0>         0.0000
     14 H4          2.5207   -0.7523    6.9911 H         1 <0>         0.0000
     15 H5          4.4819   -1.1814    3.1931 H         1 <0>         0.0000
     16 H6          0.3820   -2.9077    3.8537 H         1 <0>         0.0000
     17 H7          2.1185   -3.3637    3.7858 H         1 <0>         0.0000
     18 H8          1.3012   -3.1219    5.3752 H         1 <0>         0.0000
     19 H9          1.2199   -0.5068    2.2733 H         1 <0>         0.0000
@<TRIPOS>BOND
     1    1    3 ar
     2    1    2 ar
     3    1   11 1
     4    2    4 ar
     5    2   12 1
     6    3    5 ar
     7    3   13 1
     8    4    6 ar
     9    4   14 1
    10    5    6 ar
    11    5   15 1
    12    6   10 1
    13    7   10 1
    14    7   16 1
    15    7   17 1
    16    7   18 1
    17    8   10 2
    18    8   19 1
    19    9   10 2
