@<TRIPOS>MOLECULE
*****
   25    25     0     0     0
SMALL
NO_CHARGES

@<TRIPOS>ATOM
      1 C1         -3.3593   -3.0501   -1.5904 C.ar      1 <0>         0.0000
      2 C2         -3.4671   -2.6631   -0.2522 C.ar      1 <0>         0.0000
      3 C3         -2.1528   -2.8462   -2.2720 C.ar      1 <0>         0.0000
      4 C4         -2.3750   -2.0763    0.3984 C.ar      1 <0>         0.0000
      5 C5         -1.0673   -2.2601   -1.6188 C.ar      1 <0>         0.0000
      6 C6         -1.1631   -1.8652   -0.2731 C.ar      1 <0>         0.0000
      7 C7          1.2359   -2.1829    0.5545 C.2       1 <0>         0.0000
      8 C8          0.4457    0.0983   -0.2043 C.3       1 <0>         0.0000
      9 C9          1.9748   -4.5149    0.8389 C.3       1 <0>         0.0000
     10 C10         0.0228   -1.2337    0.4329 C.3       1 <0>         0.0000
     11 N1          0.9332   -3.5031    0.7294 N.am      1 <0>         0.0000
     12 O1          2.3938   -1.7664    0.5630 O.2       1 <0>         0.0000
     13 H1         -4.2047   -3.5063   -2.0988 H         1 <0>         0.0000
     14 H2         -4.3988   -2.8161    0.2865 H         1 <0>         0.0000
     15 H3         -2.0592   -3.1464   -3.3127 H         1 <0>         0.0000
     16 H4         -2.4663   -1.7782    1.4409 H         1 <0>         0.0000
     17 H5         -0.1325   -2.1142   -2.1553 H         1 <0>         0.0000
     18 H6          0.7646   -0.0426   -1.2408 H         1 <0>         0.0000
     19 H7         -0.3944    0.7992   -0.1960 H         1 <0>         0.0000
     20 H8          1.2845    0.5301    0.3447 H         1 <0>         0.0000
     21 H9          2.3982   -4.7745   -0.1393 H         1 <0>         0.0000
     22 H10         1.5540   -5.4136    1.2965 H         1 <0>         0.0000
     23 H11         2.7811   -4.1334    1.4676 H         1 <0>         0.0000
     24 H12        -0.2761   -1.0303    1.4692 H         1 <0>         0.0000
     25 H13        -0.0177   -3.7997    0.5540 H         1 <0>         0.0000
@<TRIPOS>BOND
     1    1    3 ar
     2    1    2 ar
     3    1   13 1
     4    2    4 ar
     5    2   14 1
     6    3    5 ar
     7    3   15 1
     8    4    6 ar
     9    4   16 1
    10    5    6 ar
    11    5   17 1
    12    6   10 1
    13    7   10 1
    14    7   11 am
    15    7   12 2
    16    8   10 1
    17    8   18 1
    18    8   19 1
    19    8   20 1
    20    9   11 1
    21    9   21 1
    22    9   22 1
    23    9   23 1
    24   10   24 1
    25   11   25 1
