@<TRIPOS>MOLECULE
*****
   27    28     0     0     0
SMALL
NO_CHARGES

@<TRIPOS>ATOM
      1 C1          2.0903   -1.0249   -0.1864 C.ar      1 <0>         0.0000
      2 C2          1.8601   -6.1214    5.1562 C.ar      1 <0>         0.0000
      3 C3          0.9653   -1.6110    0.4028 C.ar      1 <0>         0.0000
      4 C4          3.0848   -0.4711    0.6273 C.ar      1 <0>         0.0000
      5 C5          0.7562   -5.5834    5.8307 C.ar      1 <0>         0.0000
      6 C6          2.6041   -5.2912    4.3140 C.ar      1 <0>         0.0000
      7 C7          0.8309   -1.6392    1.7944 C.ar      1 <0>         0.0000
      8 C8          2.9502   -0.5055    2.0182 C.ar      1 <0>         0.0000
      9 C9          0.4062   -4.2449    5.6648 C.ar      1 <0>         0.0000
     10 C10         2.2650   -3.9459    4.1402 C.ar      1 <0>         0.0000
     11 C11         1.8208   -1.0841    2.6131 C.ar      1 <0>         0.0000
     12 C12         1.1565   -3.4035    4.8179 C.ar      1 <0>         0.0000
     13 C13         1.6806   -1.0727    4.1286 C.3       1 <0>         0.0000
     14 N1          0.7576   -2.0715    4.6485 N.pl3     1 <0>         0.0000
     15 H1          2.1955   -1.0060   -1.2682 H         1 <0>         0.0000
     16 H2          2.1313   -7.1653    5.2852 H         1 <0>         0.0000
     17 H3          0.1929   -2.0528   -0.2220 H         1 <0>         0.0000
     18 H4          3.9670   -0.0198    0.1798 H         1 <0>         0.0000
     19 H5          0.1629   -6.2103    6.4921 H         1 <0>         0.0000
     20 H6          3.4621   -5.6906    3.7784 H         1 <0>         0.0000
     21 H7         -0.0324   -2.1072    2.2576 H         1 <0>         0.0000
     22 H8          3.7335   -0.0839    2.6463 H         1 <0>         0.0000
     23 H9         -0.4563   -3.8398    6.1916 H         1 <0>         0.0000
     24 H10         2.8501   -3.3314    3.4652 H         1 <0>         0.0000
     25 H11         2.6787   -1.1720    4.5828 H         1 <0>         0.0000
     26 H12         1.2950   -0.0930    4.4325 H         1 <0>         0.0000
     27 H13         0.1731   -1.7340    5.4018 H         1 <0>         0.0000
@<TRIPOS>BOND
     1    1    4 ar
     2    1    3 ar
     3    1   15 1
     4    2    6 ar
     5    2    5 ar
     6    2   16 1
     7    3    7 ar
     8    3   17 1
     9    4    8 ar
    10    4   18 1
    11    5    9 ar
    12    5   19 1
    13    6   10 ar
    14    6   20 1
    15    7   11 ar
    16    7   21 1
    17    8   11 ar
    18    8   22 1
    19    9   12 ar
    20    9   23 1
    21   10   12 ar
    22   10   24 1
    23   11   13 1
    24   12   14 1
    25   13   14 1
    26   13   25 1
    27   13   26 1
    28   14   27 1
