@<TRIPOS>MOLECULE
*****
   18    18     0     0     0
SMALL
NO_CHARGES

@<TRIPOS>ATOM
      1 C1          1.5475    0.3745    1.5535 C.2       1 <0>         0.0000
      2 C2          1.4103    0.4684    2.9295 C.2       1 <0>         0.0000
      3 C3          0.3090   -0.1147    1.0447 C.2       1 <0>         0.0000
      4 C4         -0.5528   -0.3230    2.1191 C.2       1 <0>         0.0000
      5 C5         -1.9254   -0.8402    2.1636 C.2       1 <0>         0.0000
      6 C6         -3.6205   -1.9743    3.5238 C.3       1 <0>         0.0000
      7 N1          0.1662    0.0145    3.2720 N.pl3     1 <0>         0.0000
      8 N2         -2.3052   -1.3479    3.4079 N.am      1 <0>         0.0000
      9 O1         -2.7025   -0.7950    1.2122 O.2       1 <0>         0.0000
     10 O2          0.0002   -0.3916   -0.2533 O.3       1 <0>         0.0000
     11 H1          2.4359    0.6171    0.9829 H         1 <0>         0.0000
     12 H2          2.1030    0.8334    3.6756 H         1 <0>         0.0000
     13 H3         -3.8149   -2.1948    4.5766 H         1 <0>         0.0000
     14 H4         -3.6981   -2.8973    2.9359 H         1 <0>         0.0000
     15 H5         -4.3787   -1.2800    3.1590 H         1 <0>         0.0000
     16 H6         -0.2854    0.2047    4.1565 H         1 <0>         0.0000
     17 H7         -1.5621   -1.8009    3.9279 H         1 <0>         0.0000
     18 H8          0.7845   -0.2195   -0.7965 H         1 <0>         0.0000
@<TRIPOS>BOND
     1    1    2 2
     2    1    3 1
     3    1   11 1
     4    2    7 1
     5    2   12 1
     6    3    4 2
     7    3   10 1
     8    4    5 1
     9    4    7 1
    10    5    8 am
    11    5    9 2
    12    6    8 1
    13    6   13 1
    14    6   14 1
    15    6   15 1
    16    7   16 1
    17    8   17 1
    18   10   18 1
