@<TRIPOS>MOLECULE
*****
   18    18     0     0     0
SMALL
NO_CHARGES

@<TRIPOS>ATOM
      1 C1          0.5332    1.3040   -1.6178 C.2       1 <0>         0.0000
      2 C2          0.2870    1.7333   -2.9542 C.2       1 <0>         0.0000
      3 C3         -0.3715    0.5133   -0.9629 C.2       1 <0>         0.0000
      4 C4         -0.8721    1.3278   -3.5564 C.2       1 <0>         0.0000
      5 C5         -1.6112    0.0879   -1.5826 C.2       1 <0>         0.0000
      6 C6         -4.1866    1.0903   -3.2380 C.3       1 <0>         0.0000
      7 C7         -3.0327    0.1526   -3.5957 C.3       1 <0>         0.0000
      8 N1         -1.7825    0.5331   -2.9190 N.am      1 <0>         0.0000
      9 O1         -2.4828   -0.6043   -1.0428 O.2       1 <0>         0.0000
     10 H1          1.4489    1.6087   -1.1162 H         1 <0>         0.0000
     11 H2          0.9885    2.3585   -3.4941 H         1 <0>         0.0000
     12 H3         -0.2112    0.1733    0.0548 H         1 <0>         0.0000
     13 H4         -1.1260    1.6129   -4.5729 H         1 <0>         0.0000
     14 H5         -4.3757    1.0612   -2.1626 H         1 <0>         0.0000
     15 H6         -3.9615    2.1214   -3.5303 H         1 <0>         0.0000
     16 H7         -5.0979    0.7766   -3.7579 H         1 <0>         0.0000
     17 H8         -2.8408    0.1555   -4.6722 H         1 <0>         0.0000
     18 H9         -3.2673   -0.8673   -3.2877 H         1 <0>         0.0000
@<TRIPOS>BOND
     1    1    3 2
     2    1    2 1
     3    1   10 1
     4    2    4 2
     5    2   11 1
     6    3    5 1
     7    3   12 1
     8    4    8 1
     9    4   13 1
    10    5    8 am
    11    5    9 2
    12    6    7 1
    13    6   14 1
    14    6   15 1
    15    6   16 1
    16    7    8 1
    17    7   17 1
    18    7   18 1
