@<TRIPOS>MOLECULE
*****
   25    26     0     0     0
SMALL
NO_CHARGES

@<TRIPOS>ATOM
      1 C1          2.0686   -0.6100   -0.0572 C.ar      1 <0>         0.0000
      2 C2          0.8191   -0.4172    0.5423 C.ar      1 <0>         0.0000
      3 C3          3.1400   -1.1020    0.6995 C.ar      1 <0>         0.0000
      4 C4         -1.4218   -1.4738    6.4475 C.ar      1 <0>         0.0000
      5 C5         -1.7409   -0.1116    6.4655 C.ar      1 <0>         0.0000
      6 C6          0.6440   -0.7010    1.8978 C.ar      1 <0>         0.0000
      7 C7          2.9595   -1.4046    2.0486 C.ar      1 <0>         0.0000
      8 C8         -0.3482   -1.9120    5.6729 C.ar      1 <0>         0.0000
      9 C9         -0.9876    0.7975    5.7205 C.ar      1 <0>         0.0000
     10 C10         1.7127   -1.1970    2.6597 C.ar      1 <0>         0.0000
     11 C11         0.4006   -1.0221    4.8890 C.ar      1 <0>         0.0000
     12 C12         0.0819    0.3479    4.9350 C.ar      1 <0>         0.0000
     13 C13         1.5470   -1.5801    4.0938 C.2       1 <0>         0.0000
     14 O1          2.3027   -2.3954    4.6176 O.2       1 <0>         0.0000
     15 O2          0.8681    1.2180    4.2240 O.3       1 <0>         0.0000
     16 H1          2.2070   -0.3808   -1.1109 H         1 <0>         0.0000
     17 H2         -0.0155   -0.0454   -0.0466 H         1 <0>         0.0000
     18 H3          4.1104   -1.2527    0.2338 H         1 <0>         0.0000
     19 H4         -2.0000   -2.1820    7.0335 H         1 <0>         0.0000
     20 H5         -2.5708    0.2494    7.0672 H         1 <0>         0.0000
     21 H6         -0.3268   -0.5520    2.3609 H         1 <0>         0.0000
     22 H7          3.7724   -1.8029    2.6480 H         1 <0>         0.0000
     23 H8         -0.0698   -2.9617    5.6563 H         1 <0>         0.0000
     24 H9         -1.2213    1.8606    5.7561 H         1 <0>         0.0000
     25 H10         0.5459    2.1229    4.3608 H         1 <0>         0.0000
@<TRIPOS>BOND
     1    1    3 ar
     2    1    2 ar
     3    1   16 1
     4    2    6 ar
     5    2   17 1
     6    3    7 ar
     7    3   18 1
     8    4    5 ar
     9    4    8 ar
    10    4   19 1
    11    5    9 ar
    12    5   20 1
    13    6   10 ar
    14    6   21 1
    15    7   10 ar
    16    7   22 1
    17    8   11 ar
    18    8   23 1
    19    9   12 ar
    20    9   24 1
    21   10   13 1
    22   11   12 ar
    23   11   13 1
    24   12   15 1
    25   13   14 2
    26   15   25 1
