@<TRIPOS>MOLECULE
*****
   22    23     0     0     0
SMALL
NO_CHARGES

@<TRIPOS>ATOM
      1 C1          1.9022   -1.1246   -0.1071 C.ar      1 <0>         0.0000
      2 C2          2.9069   -0.6042    0.7156 C.ar      1 <0>         0.0000
      3 C3          0.6873   -1.5273    0.4566 C.ar      1 <0>         0.0000
      4 C4          2.7023   -0.4913    2.0936 C.ar      1 <0>         0.0000
      5 C5          0.4825   -1.4100    1.8347 C.ar      1 <0>         0.0000
      6 C6          2.7606    2.2245    5.3991 C.2       1 <0>         0.0000
      7 C7          1.7909    1.6049    4.6407 C.2       1 <0>         0.0000
      8 C8          3.0714    0.1167    5.6534 C.2       1 <0>         0.0000
      9 C9          1.4885   -0.8969    2.6632 C.ar      1 <0>         0.0000
     10 C10         1.2624   -0.8274    4.1637 C.3       1 <0>         0.0000
     11 N1          3.5551    1.2866    6.0278 N.2       1 <0>         0.0000
     12 N2          1.9941    0.2478    4.8153 N.pl3     1 <0>         0.0000
     13 H1          2.0620   -1.2092   -1.1788 H         1 <0>         0.0000
     14 H2          3.8510   -0.2821    0.2838 H         1 <0>         0.0000
     15 H3         -0.1022   -1.9251   -0.1757 H         1 <0>         0.0000
     16 H4          3.4821   -0.0747    2.7253 H         1 <0>         0.0000
     17 H5         -0.4683   -1.7171    2.2665 H         1 <0>         0.0000
     18 H6          2.9282    3.2862    5.5284 H         1 <0>         0.0000
     19 H7          1.0077    1.9858    4.0006 H         1 <0>         0.0000
     20 H8          3.4469   -0.8539    5.9547 H         1 <0>         0.0000
     21 H9          0.1942   -0.7167    4.3765 H         1 <0>         0.0000
     22 H10         1.5834   -1.7628    4.6342 H         1 <0>         0.0000
@<TRIPOS>BOND
     1    1    3 ar
     2    1    2 ar
     3    1   13 1
     4    2    4 ar
     5    2   14 1
     6    3    5 ar
     7    3   15 1
     8    4    9 ar
     9    4   16 1
    10    5    9 ar
    11    5   17 1
    12    6    7 2
    13    6   11 1
    14    6   18 1
    15    7   12 1
    16    7   19 1
    17    8   11 2
    18    8   12 1
    19    8   20 1
    20    9   10 1
    21   10   12 1
    22   10   21 1
    23   10   22 1
