@<TRIPOS>MOLECULE
*****
   30    32     0     0     0
SMALL
NO_CHARGES

@<TRIPOS>ATOM
      1 C1          5.6745    5.0647   -3.0282 C.ar      1 <0>         0.0000
      2 C2          5.7141    5.7913   -1.8314 C.ar      1 <0>         0.0000
      3 C3          4.5891    4.2237   -3.2917 C.ar      1 <0>         0.0000
      4 C4          1.6834    1.0299   -0.1312 C.ar      1 <0>         0.0000
      5 C5          0.2828    1.0394   -0.0812 C.ar      1 <0>         0.0000
      6 C6          4.6765    5.6771   -0.9067 C.ar      1 <0>         0.0000
      7 C7          3.5544    4.1003   -2.3606 C.ar      1 <0>         0.0000
      8 C8          2.3746    2.2373   -0.1432 C.ar      1 <0>         0.0000
      9 C9         -0.4029    2.2476   -0.0035 C.ar      1 <0>         0.0000
     10 C10         3.5875    4.8252   -1.1576 C.ar      1 <0>         0.0000
     11 C11         1.7033    3.4736   -0.0840 C.ar      1 <0>         0.0000
     12 C12         0.2940    3.4687    0.0158 C.ar      1 <0>         0.0000
     13 C13         2.4738    4.7445   -0.1677 C.2       1 <0>         0.0000
     14 C14        -0.1855    5.7526    0.9053 C.2       1 <0>         0.0000
     15 C15         1.1937    5.7339    1.5552 C.3       1 <0>         0.0000
     16 N1          2.2470    5.7872    0.5535 N.2       1 <0>         0.0000
     17 N2         -0.4494    4.6627    0.0834 N.am      1 <0>         0.0000
     18 O1         -1.0143    6.6346    1.0694 O.2       1 <0>         0.0000
     19 H1          6.4828    5.1553   -3.7493 H         1 <0>         0.0000
     20 H2          6.5555    6.4467   -1.6213 H         1 <0>         0.0000
     21 H3          4.5454    3.6658   -4.2235 H         1 <0>         0.0000
     22 H4          2.2260    0.0898   -0.1702 H         1 <0>         0.0000
     23 H5         -0.2729    0.1055   -0.0884 H         1 <0>         0.0000
     24 H6          4.6888    6.2447    0.0182 H         1 <0>         0.0000
     25 H7          2.7117    3.4515   -2.5792 H         1 <0>         0.0000
     26 H8          3.4582    2.2378   -0.2094 H         1 <0>         0.0000
     27 H9         -1.4886    2.2570    0.0597 H         1 <0>         0.0000
     28 H10         1.2579    6.6142    2.1943 H         1 <0>         0.0000
     29 H11         1.2639    4.8306    2.1816 H         1 <0>         0.0000
     30 H12        -1.4198    4.6189   -0.2123 H         1 <0>         0.0000
@<TRIPOS>BOND
     1    1    3 ar
     2    1    2 ar
     3    1   19 1
     4    2    6 ar
     5    2   20 1
     6    3    7 ar
     7    3   21 1
     8    4    5 ar
     9    4    8 ar
    10    4   22 1
    11    5    9 ar
    12    5   23 1
    13    6   10 ar
    14    6   24 1
    15    7   10 ar
    16    7   25 1
    17    8   11 ar
    18    8   26 1
    19    9   12 ar
    20    9   27 1
    21   10   13 1
    22   11   12 ar
    23   11   13 1
    24   12   17 1
    25   13   16 2
    26   14   15 1
    27   14   17 am
    28   14   18 2
    29   15   16 1
    30   15   28 1
    31   15   29 1
    32   17   30 1
