@<TRIPOS>MOLECULE
*****
   22    22     0     0     0
SMALL
NO_CHARGES

@<TRIPOS>ATOM
      1 C1         -1.3173   -1.0398   -0.7428 C.2       1 <0>         0.0000
      2 C2         -1.7652   -2.3849   -0.9195 C.2       1 <0>         0.0000
      3 C3         -0.0029   -0.7541   -0.5001 C.2       1 <0>         0.0000
      4 C4         -0.8395   -3.3937   -0.8496 C.2       1 <0>         0.0000
      5 C5          1.0061   -1.8041   -0.4404 C.2       1 <0>         0.0000
      6 C6         -1.0769   -4.8564   -1.1257 C.2       1 <0>         0.0000
      7 C7         -2.5415   -6.7718   -1.2905 C.3       1 <0>         0.0000
      8 C8         -3.2293   -4.9064    0.1714 C.3       1 <0>         0.0000
      9 N1          0.4752   -3.0922   -0.6258 N.am      1 <0>         0.0000
     10 N2         -2.2979   -5.4016   -0.8410 N.am      1 <0>         0.0000
     11 O1          2.2137   -1.6432   -0.2579 O.2       1 <0>         0.0000
     12 O2         -0.1613   -5.5056   -1.6437 O.2       1 <0>         0.0000
     13 H1         -2.0422   -0.2315   -0.8076 H         1 <0>         0.0000
     14 H2         -2.8019   -2.6010   -1.1425 H         1 <0>         0.0000
     15 H3          0.3525    0.2621   -0.3666 H         1 <0>         0.0000
     16 H4         -2.2497   -7.4997   -0.5226 H         1 <0>         0.0000
     17 H5         -1.9628   -6.9686   -2.1916 H         1 <0>         0.0000
     18 H6         -3.6083   -6.8890   -1.5028 H         1 <0>         0.0000
     19 H7         -4.1783   -4.5924   -0.2795 H         1 <0>         0.0000
     20 H8         -2.8034   -4.0693    0.7206 H         1 <0>         0.0000
     21 H9         -3.4395   -5.7108    0.8857 H         1 <0>         0.0000
     22 H10         1.1461   -3.8557   -0.6957 H         1 <0>         0.0000
@<TRIPOS>BOND
     1    1    3 2
     2    1    2 1
     3    1   13 1
     4    2    4 2
     5    2   14 1
     6    3    5 1
     7    3   15 1
     8    4    6 1
     9    4    9 1
    10    5    9 am
    11    5   11 2
    12    6   10 am
    13    6   12 2
    14    7   10 1
    15    7   16 1
    16    7   17 1
    17    7   18 1
    18    8   10 1
    19    8   19 1
    20    8   20 1
    21    8   21 1
    22    9   22 1
