@<TRIPOS>MOLECULE
*****
   19    19     0     0     0
SMALL
NO_CHARGES

@<TRIPOS>ATOM
      1 C1         -1.2067    3.4069    1.4111 C.2       1 <0>         0.0000
      2 C2         -1.8011    3.2319    2.6231 C.2       1 <0>         0.0000
      3 C3         -0.4031    1.6334    2.2629 C.2       1 <0>         0.0000
      4 C4          0.8183   -0.5358    0.0403 C.3       1 <0>         0.0000
      5 C5          2.6198    0.8007    1.1235 C.3       1 <0>         0.0000
      6 N1         -0.3055    2.3637    1.1946 N.2       1 <0>         0.0000
      7 N2          1.4669   -0.0978    1.2853 N.pl3     1 <0>         0.0000
      8 O1          1.3671    0.4080    3.7603 O.2       1 <0>         0.0000
      9 O2         -0.4788   -0.9594    2.6500 O.2       1 <0>         0.0000
     10 O3         -1.2884    2.0858    3.1847 O.3       1 <0>         0.0000
     11 S1          0.5100    0.1125    2.6175 S.o2      1 <0>         0.0000
     12 H1         -1.3545    4.1934    0.6841 H         1 <0>         0.0000
     13 H2         -2.5408    3.7645    3.2017 H         1 <0>         0.0000
     14 H3          0.0026   -1.2188    0.2749 H         1 <0>         0.0000
     15 H4          1.5635   -1.0760   -0.5502 H         1 <0>         0.0000
     16 H5          0.4401    0.3168   -0.5355 H         1 <0>         0.0000
     17 H6          3.0385    1.0364    2.1012 H         1 <0>         0.0000
     18 H7          2.3381    1.7235    0.6034 H         1 <0>         0.0000
     19 H8          3.3771    0.2679    0.5417 H         1 <0>         0.0000
@<TRIPOS>BOND
     1    1    2 2
     2    1    6 1
     3    1   12 1
     4    2   10 1
     5    2   13 1
     6    3    6 2
     7    3   10 1
     8    3   11 1
     9    4    7 1
    10    4   14 1
    11    4   15 1
    12    4   16 1
    13    5    7 1
    14    5   17 1
    15    5   18 1
    16    5   19 1
    17    7   11 1
    18    8   11 2
    19    9   11 2
