@<TRIPOS>MOLECULE
*****
   29    29     0     0     0
SMALL
NO_CHARGES

@<TRIPOS>ATOM
      1 C1          0.8536    3.6967    5.0489 C.ar      1 <0>         0.0000
      2 C2          1.9064    2.8829    5.4737 C.ar      1 <0>         0.0000
      3 C3         -0.2782    3.1179    4.4591 C.ar      1 <0>         0.0000
      4 C4          1.8265    1.4956    5.3034 C.ar      1 <0>         0.0000
      5 C5         -0.3582    1.7347    4.2997 C.ar      1 <0>         0.0000
      6 C6          0.6974    0.9132    4.7206 C.ar      1 <0>         0.0000
      7 C7         -0.4427   -1.2416    5.4314 C.2       1 <0>         0.0000
      8 C8         -1.3274   -3.2794    6.4356 C.3       1 <0>         0.0000
      9 C9          0.5834   -3.4668    4.8843 C.3       1 <0>         0.0000
     10 C10         1.2708   -0.5687    2.2277 C.3       1 <0>         0.0000
     11 C11         0.6278   -0.5838    4.5247 C.3       1 <0>         0.0000
     12 N1         -0.3891   -2.6054    5.5450 N.am      1 <0>         0.0000
     13 O1         -1.2801   -0.5582    6.0191 O.2       1 <0>         0.0000
     14 O2          0.2865   -0.9538    3.1833 O.3       1 <0>         0.0000
     15 H1          0.9121    4.7749    5.1749 H         1 <0>         0.0000
     16 H2          2.7890    3.3242    5.9299 H         1 <0>         0.0000
     17 H3         -1.1009    3.7484    4.1312 H         1 <0>         0.0000
     18 H4          2.6519    0.8643    5.6276 H         1 <0>         0.0000
     19 H5         -1.2373    1.2813    3.8531 H         1 <0>         0.0000
     20 H6         -1.9597   -3.9741    5.8691 H         1 <0>         0.0000
     21 H7         -1.9550   -2.5329    6.9189 H         1 <0>         0.0000
     22 H8         -0.7824   -3.8485    7.1993 H         1 <0>         0.0000
     23 H9          1.3984   -3.7492    5.5653 H         1 <0>         0.0000
     24 H10         0.9906   -2.9885    3.9968 H         1 <0>         0.0000
     25 H11         0.0816   -4.3844    4.5591 H         1 <0>         0.0000
     26 H12         0.9303   -0.9461    1.2612 H         1 <0>         0.0000
     27 H13         2.2493   -1.0128    2.4672 H         1 <0>         0.0000
     28 H14         1.3812    0.5209    2.1774 H         1 <0>         0.0000
     29 H15         1.6134   -1.0065    4.7773 H         1 <0>         0.0000
@<TRIPOS>BOND
     1    1    3 ar
     2    1    2 ar
     3    1   15 1
     4    2    4 ar
     5    2   16 1
     6    3    5 ar
     7    3   17 1
     8    4    6 ar
     9    4   18 1
    10    5    6 ar
    11    5   19 1
    12    6   11 1
    13    7   11 1
    14    7   12 am
    15    7   13 2
    16    8   12 1
    17    8   20 1
    18    8   21 1
    19    8   22 1
    20    9   12 1
    21    9   23 1
    22    9   24 1
    23    9   25 1
    24   10   14 1
    25   10   26 1
    26   10   27 1
    27   10   28 1
    28   11   14 1
    29   11   29 1
