@<TRIPOS>MOLECULE
*****
   23    24     0     0     0
SMALL
NO_CHARGES

@<TRIPOS>ATOM
      1 C1          1.8359   -1.6095   -0.2136 C.ar      1 <0>         0.0000
      2 C2          1.1514   -0.4504    0.1698 C.ar      1 <0>         0.0000
      3 C3          3.5627    1.3173    6.4366 C.ar      1 <0>         0.0000
      4 C4          4.8535    0.8118    6.2102 C.ar      1 <0>         0.0000
      5 C5          2.5715   -2.3325    0.7247 C.ar      1 <0>         0.0000
      6 C6          1.1997   -0.0397    1.5028 C.ar      1 <0>         0.0000
      7 C7          2.5211    0.9283    5.6054 C.ar      1 <0>         0.0000
      8 C8          5.0299   -0.0787    5.1589 C.ar      1 <0>         0.0000
      9 C9          2.6318   -1.9304    2.0679 C.ar      1 <0>         0.0000
     10 C10         1.9265   -0.7707    2.4439 C.ar      1 <0>         0.0000
     11 C11         2.8127    0.0318    4.5621 C.ar      1 <0>         0.0000
     12 N1          4.0269   -0.4691    4.3478 N.ar      1 <0>         0.0000
     13 O1          3.3429   -2.6934    2.9426 O.3       1 <0>         0.0000
     14 O2          1.7714   -0.3461    3.7773 O.3       1 <0>         0.0000
     15 H1          1.8036   -1.9477   -1.2459 H         1 <0>         0.0000
     16 H2          0.5817    0.1234   -0.5552 H         1 <0>         0.0000
     17 H3          3.3776    2.0136    7.2502 H         1 <0>         0.0000
     18 H4          5.6932    1.0966    6.8358 H         1 <0>         0.0000
     19 H5          3.1173   -3.2292    0.4458 H         1 <0>         0.0000
     20 H6          0.6600    0.8400    1.8420 H         1 <0>         0.0000
     21 H7          1.5074    1.2942    5.7279 H         1 <0>         0.0000
     22 H8          6.0041   -0.5135    4.9467 H         1 <0>         0.0000
     23 H9          3.7597   -2.0641    3.5836 H         1 <0>         0.0000
@<TRIPOS>BOND
     1    1    2 ar
     2    1    5 ar
     3    1   15 1
     4    2    6 ar
     5    2   16 1
     6    3    4 ar
     7    3    7 ar
     8    3   17 1
     9    4    8 ar
    10    4   18 1
    11    5    9 ar
    12    5   19 1
    13    6   10 ar
    14    6   20 1
    15    7   11 ar
    16    7   21 1
    17    8   12 ar
    18    8   22 1
    19    9   10 ar
    20    9   13 1
    21   10   14 1
    22   11   12 ar
    23   11   14 1
    24   13   23 1
