@<TRIPOS>MOLECULE
*****
   23    23     0     0     0
SMALL
NO_CHARGES

@<TRIPOS>ATOM
      1 C1          4.0192   -2.2127   -0.1011 C.1       1 <0>         0.0000
      2 C2          1.8851   -1.0363   -0.1124 C.ar      1 <0>         0.0000
      3 C3          0.8066   -0.4630    0.5610 C.ar      1 <0>         0.0000
      4 C4          1.7997   -1.0786    2.6757 C.ar      1 <0>         0.0000
      5 C5          2.9210   -1.6309    0.6081 C.ar      1 <0>         0.0000
      6 C6          2.8783   -1.6520    2.0022 C.ar      1 <0>         0.0000
      7 C7          0.7638   -0.4841    1.9551 C.ar      1 <0>         0.0000
      8 C8          5.9940   -1.8966    3.7987 C.3       1 <0>         0.0000
      9 C9          4.5771   -1.3860    3.6451 C.3       1 <0>         0.0000
     10 N1          4.9099   -2.6846   -0.6763 N.1       1 <0>         0.0000
     11 O1         -1.7256    0.2998    1.9021 O.2       1 <0>         0.0000
     12 O2         -0.6896   -0.3181    4.1365 O.2       1 <0>         0.0000
     13 O3          3.8770   -2.2271    2.7314 O.3       1 <0>         0.0000
     14 S1         -0.5862    0.2336    2.7982 S.o2      1 <0>         0.0000
     15 Cl1         0.0395    2.1641    3.0664 Cl        1 <0>         0.0000
     16 H1          1.9034   -1.0113   -1.1993 H         1 <0>         0.0000
     17 H2          0.0047   -0.0027   -0.0101 H         1 <0>         0.0000
     18 H3          1.7694   -1.0971    3.7623 H         1 <0>         0.0000
     19 H4          6.0005   -2.9179    4.1894 H         1 <0>         0.0000
     20 H5          6.5157   -1.8829    2.8361 H         1 <0>         0.0000
     21 H6          6.5638   -1.2546    4.4787 H         1 <0>         0.0000
     22 H7          4.5777   -0.3642    3.2540 H         1 <0>         0.0000
     23 H8          4.0570   -1.4012    4.6075 H         1 <0>         0.0000
@<TRIPOS>BOND
     1    1    5 1
     2    1   10 3
     3    2    3 ar
     4    2    5 ar
     5    2   16 1
     6    3    7 ar
     7    3   17 1
     8    4    6 ar
     9    4    7 ar
    10    4   18 1
    11    5    6 ar
    12    6   13 1
    13    7   14 1
    14    8    9 1
    15    8   19 1
    16    8   20 1
    17    8   21 1
    18    9   13 1
    19    9   22 1
    20    9   23 1
    21   11   14 2
    22   12   14 2
    23   14   15 1
