@<TRIPOS>MOLECULE
*****
   40    42     0     0     0
SMALL
NO_CHARGES

@<TRIPOS>ATOM
      1 C1          4.2581    0.6535    3.1147 C.ar      1 <0>         0.0000
      2 C2          5.4848    0.3642    3.7123 C.ar      1 <0>         0.0000
      3 C3          4.7854   -0.8542    1.3021 C.ar      1 <0>         0.0000
      4 C4          3.9083    0.0443    1.9096 C.ar      1 <0>         0.0000
      5 C5          6.3618   -0.5343    3.1047 C.ar      1 <0>         0.0000
      6 C6          6.0121   -1.1435    1.8996 C.ar      1 <0>         0.0000
      7 C7          1.1894    2.2156    1.1302 C.2       1 <0>         0.0000
      8 C8          1.4638    1.8141   -0.2852 C.3       1 <0>         0.0000
      9 C9          2.7040    0.9618   -0.1384 C.3       1 <0>         0.0000
     10 C10         7.3629   -5.7219    1.5926 C.3       1 <0>         0.0000
     11 C11         8.1398   -4.7473    2.4330 C.3       1 <0>         0.0000
     12 C12         7.5532   -4.3072    1.1203 C.3       1 <0>         0.0000
     13 C13         2.5685    0.3580    1.2587 C.3       1 <0>         0.0000
     14 C14         1.6856   -0.8984    1.2669 C.3       1 <0>         0.0000
     15 C15         7.8369   -0.1433    4.9287 C.3       1 <0>         0.0000
     16 C16         6.3811   -3.3495    1.0913 C.3       1 <0>         0.0000
     17 O1          0.4487    3.1212    1.4799 O.2       1 <0>         0.0000
     18 O2          1.8690    1.3937    1.9855 O.3       1 <0>         0.0000
     19 O3          7.5570   -0.8083    3.6985 O.3       1 <0>         0.0000
     20 O4          6.8607   -2.0220    1.2964 O.3       1 <0>         0.0000
     21 H1          3.5804    1.3535    3.5961 H         1 <0>         0.0000
     22 H2          5.7510    0.8426    4.6508 H         1 <0>         0.0000
     23 H3          4.5149   -1.3309    0.3629 H         1 <0>         0.0000
     24 H4          0.6160    1.2390   -0.6674 H         1 <0>         0.0000
     25 H5          1.6512    2.6881   -0.9131 H         1 <0>         0.0000
     26 H6          2.8039    0.2124   -0.9303 H         1 <0>         0.0000
     27 H7          3.5862    1.6140   -0.1966 H         1 <0>         0.0000
     28 H8          7.9162   -6.5015    1.0834 H         1 <0>         0.0000
     29 H9          6.3849   -6.0239    1.9464 H         1 <0>         0.0000
     30 H10         7.6822   -4.3962    3.3496 H         1 <0>         0.0000
     31 H11         9.2142   -4.8734    2.4876 H         1 <0>         0.0000
     32 H12         8.2358   -4.1397    0.2959 H         1 <0>         0.0000
     33 H13         0.7249   -0.6798    0.8021 H         1 <0>         0.0000
     34 H14         1.5176   -1.2271    2.2918 H         1 <0>         0.0000
     35 H15         2.1745   -1.6989    0.7126 H         1 <0>         0.0000
     36 H16         8.8198   -0.4505    5.2944 H         1 <0>         0.0000
     37 H17         7.0679   -0.3951    5.6633 H         1 <0>         0.0000
     38 H18         7.8353    0.9359    4.7577 H         1 <0>         0.0000
     39 H19         5.6672   -3.5927    1.8839 H         1 <0>         0.0000
     40 H20         5.8719   -3.3949    0.1240 H         1 <0>         0.0000
@<TRIPOS>BOND
     1    1    2 ar
     2    1    4 ar
     3    1   21 1
     4    2    5 ar
     5    2   22 1
     6    3    4 ar
     7    3    6 ar
     8    3   23 1
     9    4   13 1
    10    5    6 ar
    11    5   19 1
    12    6   20 1
    13    7    8 1
    14    7   17 2
    15    7   18 1
    16    8    9 1
    17    8   24 1
    18    8   25 1
    19    9   13 1
    20    9   26 1
    21    9   27 1
    22   10   11 1
    23   10   12 1
    24   10   28 1
    25   10   29 1
    26   11   12 1
    27   11   30 1
    28   11   31 1
    29   12   16 1
    30   12   32 1
    31   13   14 1
    32   13   18 1
    33   14   33 1
    34   14   34 1
    35   14   35 1
    36   15   19 1
    37   15   36 1
    38   15   37 1
    39   15   38 1
    40   16   20 1
    41   16   39 1
    42   16   40 1
