@<TRIPOS>MOLECULE
*****
   25    25     0     0     0
SMALL
NO_CHARGES

@<TRIPOS>ATOM
      1 C1          4.6378    1.2887   -5.0440 C.2       1 <0>         0.0000
      2 C2          3.8688    0.5189   -4.2137 C.2       1 <0>         0.0000
      3 C3          5.6136   -0.8303   -4.3906 C.2       1 <0>         0.0000
      4 C4          2.6753    1.2221   -2.1271 C.2       1 <0>         0.0000
      5 C5          1.4354    1.6771   -0.1659 C.3       1 <0>         0.0000
      6 C6          7.2794   -1.0514   -1.7175 C.3       1 <0>         0.0000
      7 C7          2.5525    0.9047   -3.6135 C.3       1 <0>         0.0000
      8 N1          4.4341   -0.6876   -3.8492 N.2       1 <0>         0.0000
      9 N2          6.4103   -1.9722   -4.2050 N.pl3     1 <0>         0.0000
     10 O1          3.7134    1.3642   -1.5134 O.2       1 <0>         0.0000
     11 O2          8.2903   -3.1612   -3.0052 O.2       1 <0>         0.0000
     12 O3          8.6751   -0.8158   -3.9621 O.2       1 <0>         0.0000
     13 O4          1.4482    1.3483   -1.5725 O.3       1 <0>         0.0000
     14 S1          6.1342    0.4895   -5.4117 S.3       1 <0>         0.0000
     15 S2          7.8461   -1.7941   -3.2645 S.o2      1 <0>         0.0000
     16 H1          4.4318    2.2839   -5.4167 H         1 <0>         0.0000
     17 H2          0.3825    1.7389    0.1076 H         1 <0>         0.0000
     18 H3          1.9364    2.6325    0.0058 H         1 <0>         0.0000
     19 H4          1.9390    0.8973    0.4098 H         1 <0>         0.0000
     20 H5          8.1746   -0.8530   -1.1257 H         1 <0>         0.0000
     21 H6          6.7492   -0.1243   -1.9382 H         1 <0>         0.0000
     22 H7          6.6283   -1.7635   -1.2099 H         1 <0>         0.0000
     23 H8          2.1387    1.7881   -4.1094 H         1 <0>         0.0000
     24 H9          1.8182    0.1022   -3.7324 H         1 <0>         0.0000
     25 H10         5.8602   -2.7544   -3.8489 H         1 <0>         0.0000
@<TRIPOS>BOND
     1    1    2 2
     2    1   14 1
     3    1   16 1
     4    2    7 1
     5    2    8 1
     6    3    8 2
     7    3    9 1
     8    3   14 1
     9    4    7 1
    10    4   10 2
    11    4   13 1
    12    5   13 1
    13    5   17 1
    14    5   18 1
    15    5   19 1
    16    6   15 1
    17    6   20 1
    18    6   21 1
    19    6   22 1
    20    7   23 1
    21    7   24 1
    22    9   15 1
    23    9   25 1
    24   11   15 2
    25   12   15 2
