@<TRIPOS>MOLECULE
*****
   20    19     0     0     0
SMALL
NO_CHARGES

@<TRIPOS>ATOM
      1 C1         -0.4229   -2.0745    1.2401 C.2       1 <0>         0.0000
      2 C2         -0.5285   -3.4241    0.5538 C.3       1 <0>         0.0000
      3 C3         -0.0445    2.5998   -0.9024 C.3       1 <0>         0.0000
      4 C4          2.6849    0.2609    1.1005 C.3       1 <0>         0.0000
      5 N1         -0.2242   -1.0009    0.3682 N.am      1 <0>         0.0000
      6 O1         -0.5018   -1.9169    2.4455 O.2       1 <0>         0.0000
      7 O2         -1.5492    1.1734    1.3981 O.2       1 <0>         0.0000
      8 O3          0.1090    1.1815   -0.6543 O.3       1 <0>         0.0000
      9 P1         -0.2929    0.6410    0.8281 P.3       1 <0>         0.0000
     10 S1          1.3420    1.0477    2.0749 S.3       1 <0>         0.0000
     11 H1          0.2828   -3.5755   -0.1657 H         1 <0>         0.0000
     12 H2         -1.4779   -3.4895    0.0113 H         1 <0>         0.0000
     13 H3         -0.4982   -4.2077    1.3105 H         1 <0>         0.0000
     14 H4          0.2153    2.7516   -1.9501 H         1 <0>         0.0000
     15 H5          0.6356    3.1703   -0.2627 H         1 <0>         0.0000
     16 H6         -1.0762    2.9049   -0.7157 H         1 <0>         0.0000
     17 H7          3.6157    0.4918    1.6230 H         1 <0>         0.0000
     18 H8          2.7273    0.6667    0.0884 H         1 <0>         0.0000
     19 H9          2.5510   -0.8217    1.0685 H         1 <0>         0.0000
     20 H10        -0.1910   -1.1813   -0.6305 H         1 <0>         0.0000
@<TRIPOS>BOND
     1    1    2 1
     2    1    5 am
     3    1    6 2
     4    2   11 1
     5    2   12 1
     6    2   13 1
     7    3    8 1
     8    3   14 1
     9    3   15 1
    10    3   16 1
    11    4   10 1
    12    4   17 1
    13    4   18 1
    14    4   19 1
    15    5    9 1
    16    5   20 1
    17    7    9 2
    18    8    9 1
    19    9   10 1
