@<TRIPOS>MOLECULE
*****
   25    25     0     0     0
SMALL
NO_CHARGES

@<TRIPOS>ATOM
      1 C1          4.3165    1.0740   -5.5450 C.2       1 <0>         0.0000
      2 C2          3.8296    0.3600   -4.4876 C.2       1 <0>         0.0000
      3 C3          5.6659   -0.8256   -4.8398 C.2       1 <0>         0.0000
      4 C4          2.8575    1.1745   -2.3198 C.2       1 <0>         0.0000
      5 C5          1.9790    1.3602   -0.1341 C.3       1 <0>         0.0000
      6 C6          5.6363   -3.5358   -2.7820 C.3       1 <0>         0.0000
      7 C7          2.5744    0.6559   -3.7245 C.3       1 <0>         0.0000
      8 N1          4.6083   -0.7117   -4.0897 N.2       1 <0>         0.0000
      9 N2          6.6154   -1.8339   -4.6632 N.pl3     1 <0>         0.0000
     10 O1          3.8359    1.8108   -1.9882 O.2       1 <0>         0.0000
     11 O2          4.9011   -3.7157   -5.3266 O.2       1 <0>         0.0000
     12 O3          7.3273   -4.2390   -4.7409 O.2       1 <0>         0.0000
     13 O4          1.8399    0.8632   -1.4830 O.3       1 <0>         0.0000
     14 S1          5.8012    0.3693   -6.1201 S.3       1 <0>         0.0000
     15 S2          6.0943   -3.4817   -4.5172 S.o2      1 <0>         0.0000
     16 H1          3.9183    1.9749   -5.9923 H         1 <0>         0.0000
     17 H2          1.0854    1.0254    0.3921 H         1 <0>         0.0000
     18 H3          2.0417    2.4509   -0.1349 H         1 <0>         0.0000
     19 H4          2.8783    0.9491    0.3301 H         1 <0>         0.0000
     20 H5          5.2630   -4.5443   -2.5944 H         1 <0>         0.0000
     21 H6          6.5280   -3.3268   -2.1915 H         1 <0>         0.0000
     22 H7          4.8619   -2.7847   -2.6258 H         1 <0>         0.0000
     23 H8          1.9890    1.4245   -4.2395 H         1 <0>         0.0000
     24 H9          1.9475   -0.2368   -3.6558 H         1 <0>         0.0000
     25 H10         7.4437   -1.7980   -5.2536 H         1 <0>         0.0000
@<TRIPOS>BOND
     1    1    2 2
     2    1   14 1
     3    1   16 1
     4    2    7 1
     5    2    8 1
     6    3    8 2
     7    3    9 1
     8    3   14 1
     9    4    7 1
    10    4   10 2
    11    4   13 1
    12    5   13 1
    13    5   17 1
    14    5   18 1
    15    5   19 1
    16    6   15 1
    17    6   20 1
    18    6   21 1
    19    6   22 1
    20    7   23 1
    21    7   24 1
    22    9   15 1
    23    9   25 1
    24   11   15 2
    25   12   15 2
