@<TRIPOS>MOLECULE
*****
   25    25     0     0     0
SMALL
NO_CHARGES

@<TRIPOS>ATOM
      1 C1          5.1612    1.4346   -5.2531 C.2       1 <0>         0.0000
      2 C2          4.2224    0.5046   -4.9017 C.2       1 <0>         0.0000
      3 C3          5.9866   -0.8361   -5.0127 C.2       1 <0>         0.0000
      4 C4          2.2018    2.0976   -4.7452 C.2       1 <0>         0.0000
      5 C5          0.2096    3.3635   -4.5903 C.3       1 <0>         0.0000
      6 C6          7.6663   -1.8083   -2.4183 C.3       1 <0>         0.0000
      7 C7          2.7514    0.6892   -4.6488 C.3       1 <0>         0.0000
      8 N1          4.7082   -0.7872   -4.7551 N.2       1 <0>         0.0000
      9 N2          6.6952   -2.0471   -5.0192 N.pl3     1 <0>         0.0000
     10 O1          2.8248    3.1166   -4.9741 O.2       1 <0>         0.0000
     11 O2          8.4545   -3.6405   -4.1870 O.2       1 <0>         0.0000
     12 O3          9.0456   -1.1780   -4.5883 O.2       1 <0>         0.0000
     13 O4          0.8658    2.0783   -4.5299 O.3       1 <0>         0.0000
     14 S1          6.7212    0.6885   -5.4538 S.3       1 <0>         0.0000
     15 S2          8.1370   -2.2174   -4.1145 S.o2      1 <0>         0.0000
     16 H1          5.0260    2.4980   -5.3811 H         1 <0>         0.0000
     17 H2         -0.8435    3.1597   -4.3989 H         1 <0>         0.0000
     18 H3          0.3431    3.8122   -5.5772 H         1 <0>         0.0000
     19 H4          0.6174    4.0347   -3.8310 H         1 <0>         0.0000
     20 H5          8.5785   -1.8585   -1.8211 H         1 <0>         0.0000
     21 H6          7.2573   -0.7973   -2.4048 H         1 <0>         0.0000
     22 H7          6.9363   -2.5407   -2.0722 H         1 <0>         0.0000
     23 H8          2.1818    0.0611   -5.3433 H         1 <0>         0.0000
     24 H9          2.5001    0.3024   -3.6545 H         1 <0>         0.0000
     25 H10         6.0799   -2.8512   -4.8987 H         1 <0>         0.0000
@<TRIPOS>BOND
     1    1    2 2
     2    1   14 1
     3    1   16 1
     4    2    7 1
     5    2    8 1
     6    3    8 2
     7    3    9 1
     8    3   14 1
     9    4    7 1
    10    4   10 2
    11    4   13 1
    12    5   13 1
    13    5   17 1
    14    5   18 1
    15    5   19 1
    16    6   15 1
    17    6   20 1
    18    6   21 1
    19    6   22 1
    20    7   23 1
    21    7   24 1
    22    9   15 1
    23    9   25 1
    24   11   15 2
    25   12   15 2
