@<TRIPOS>MOLECULE
*****
   28    29     0     0     0
SMALL
NO_CHARGES

@<TRIPOS>ATOM
      1 C1          2.7713   -0.2399   -0.1418 C.2       1 <0>         0.0000
      2 C2          4.7250   -2.4460   -1.5454 C.3       1 <0>         0.0000
      3 C3          5.8930   -2.1888   -0.6212 C.3       1 <0>         0.0000
      4 C4         -0.2159   -0.9358    0.9189 C.3       1 <0>         0.0000
      5 C5         -1.2535    0.8806    1.9992 C.3       1 <0>         0.0000
      6 C6          4.9273   -1.0763   -0.9462 C.3       1 <0>         0.0000
      7 C7         -0.8997   -0.5885    2.2346 C.3       1 <0>         0.0000
      8 C8          1.9895    0.3383    1.0526 C.3       1 <0>         0.0000
      9 N1          4.0310   -0.6356    0.1044 N.am      1 <0>         0.0000
     10 N2          0.5562    0.3272    0.6141 N.4       1 <0>         0.0000
     11 O1          2.1981   -0.2890   -1.2357 O.2       1 <0>         0.0000
     12 O2         -0.1554    1.4224    1.2010 O.3       1 <0>         0.0000
     13 O3          0.0679   -0.7723    3.2583 O.3       1 <0>         0.0000
     14 H1          4.9077   -2.5506   -2.6094 H         1 <0>         0.0000
     15 H2          3.9012   -3.0389   -1.1622 H         1 <0>         0.0000
     16 H3          5.8484   -2.6226    0.3739 H         1 <0>         0.0000
     17 H4          6.8913   -2.1173   -1.0398 H         1 <0>         0.0000
     18 H5          0.4735   -1.7750    0.9909 H         1 <0>         0.0000
     19 H6         -0.9288   -1.0919    0.1093 H         1 <0>         0.0000
     20 H7         -2.1842    0.9947    1.4359 H         1 <0>         0.0000
     21 H8         -1.2843    1.4729    2.9142 H         1 <0>         0.0000
     22 H9          5.2574   -0.2764   -1.6028 H         1 <0>         0.0000
     23 H10        -1.7938   -1.2015    2.3878 H         1 <0>         0.0000
     24 H11         2.2502    1.3867    1.2127 H         1 <0>         0.0000
     25 H12         2.0810   -0.2133    1.9873 H         1 <0>         0.0000
     26 H13         4.4191   -0.4813    1.0294 H         1 <0>         0.0000
     27 H14         0.6002    0.4725   -0.4153 H         1 <0>         0.0000
     28 H15        -0.3534   -0.7134    4.1316 H         1 <0>         0.0000
@<TRIPOS>BOND
     1    1    8 1
     2    1    9 am
     3    1   11 2
     4    2    3 1
     5    2    6 1
     6    2   14 1
     7    2   15 1
     8    3    6 1
     9    3   16 1
    10    3   17 1
    11    4    7 1
    12    4   10 1
    13    4   18 1
    14    4   19 1
    15    5    7 1
    16    5   12 1
    17    5   20 1
    18    5   21 1
    19    6    9 1
    20    6   22 1
    21    7   13 1
    22    7   23 1
    23    8   10 1
    24    8   24 1
    25    8   25 1
    26    9   26 1
    27   10   12 1
    28   10   27 1
    29   13   28 1
