@<TRIPOS>MOLECULE
*****
   27    28     0     0     0
SMALL
NO_CHARGES

@<TRIPOS>ATOM
      1 C1          0.1008   -0.7152   -3.8471 C.2       1 <0>         0.0000
      2 C2         -2.5508    1.4483   -5.3274 C.3       1 <0>         0.0000
      3 C3         -2.5449   -0.0299   -5.6612 C.3       1 <0>         0.0000
      4 C4         -1.2334   -0.7807   -1.0664 C.3       1 <0>         0.0000
      5 C5         -0.8393    1.4549   -0.2758 C.3       1 <0>         0.0000
      6 C6         -1.2518    0.6789   -5.3443 C.3       1 <0>         0.0000
      7 C7         -1.8389    0.2882   -0.1320 C.3       1 <0>         0.0000
      8 C8          0.8120   -0.7970   -2.4819 C.3       1 <0>         0.0000
      9 N1          0.1433   -0.3074   -1.2814 N.3       1 <0>         0.0000
     10 N2         -0.6116    0.4260   -4.0839 N.am      1 <0>         0.0000
     11 O1          0.2088   -1.6296   -4.6624 O.2       1 <0>         0.0000
     12 O2         -0.0391    1.1471   -1.4166 O.3       1 <0>         0.0000
     13 O3         -1.8802   -0.0739    1.2475 O.3       1 <0>         0.0000
     14 H1         -2.7263    2.1645   -6.1243 H         1 <0>         0.0000
     15 H2         -2.9437    1.7438   -4.3583 H         1 <0>         0.0000
     16 H3         -2.9174   -0.7208   -4.9124 H         1 <0>         0.0000
     17 H4         -2.7120   -0.3345   -6.6894 H         1 <0>         0.0000
     18 H5         -1.1996   -1.7634   -0.5886 H         1 <0>         0.0000
     19 H6         -1.8084   -0.8463   -2.0011 H         1 <0>         0.0000
     20 H7         -1.3071    2.4232   -0.4625 H         1 <0>         0.0000
     21 H8         -0.2231    1.4942    0.6292 H         1 <0>         0.0000
     22 H9         -0.5733    0.8517   -6.1768 H         1 <0>         0.0000
     23 H10        -2.8414    0.5679   -0.4784 H         1 <0>         0.0000
     24 H11         1.0288   -1.8540   -2.3123 H         1 <0>         0.0000
     25 H12         1.7722   -0.2760   -2.5561 H         1 <0>         0.0000
     26 H13        -0.5610    1.1609   -3.3854 H         1 <0>         0.0000
     27 H14        -2.5968   -0.7142    1.3765 H         1 <0>         0.0000
@<TRIPOS>BOND
     1    1    8 1
     2    1   10 am
     3    1   11 2
     4    2    3 1
     5    2    6 1
     6    2   14 1
     7    2   15 1
     8    3    6 1
     9    3   16 1
    10    3   17 1
    11    4    7 1
    12    4    9 1
    13    4   18 1
    14    4   19 1
    15    5    7 1
    16    5   12 1
    17    5   20 1
    18    5   21 1
    19    6   10 1
    20    6   22 1
    21    7   13 1
    22    7   23 1
    23    8    9 1
    24    8   24 1
    25    8   25 1
    26    9   12 1
    27   10   26 1
    28   13   27 1
