@<TRIPOS>MOLECULE
*****
   25    25     0     0     0
SMALL
NO_CHARGES

@<TRIPOS>ATOM
      1 C1          4.5675    0.9934   -5.2158 C.2       1 <0>         0.0000
      2 C2          4.4331    0.2851   -4.0552 C.2       1 <0>         0.0000
      3 C3          6.4882   -0.3604   -4.5745 C.2       1 <0>         0.0000
      4 C4          3.5686    0.7335   -1.7344 C.2       1 <0>         0.0000
      5 C5          4.5343    2.4578   -0.4408 C.3       1 <0>         0.0000
      6 C6          7.4062   -2.8308   -2.4262 C.3       1 <0>         0.0000
      7 C7          3.2348    0.2799   -3.1492 C.3       1 <0>         0.0000
      8 N1          5.5338   -0.4711   -3.6956 N.2       1 <0>         0.0000
      9 N2          7.7035   -1.0373   -4.4567 N.pl3     1 <0>         0.0000
     10 O1          3.3217    0.1026   -0.7265 O.2       1 <0>         0.0000
     11 O2          6.5526   -3.3648   -4.8833 O.2       1 <0>         0.0000
     12 O3          9.0659   -3.1468   -4.5111 O.2       1 <0>         0.0000
     13 O4          4.1621    1.9477   -1.7383 O.3       1 <0>         0.0000
     14 S1          6.1191    0.6790   -5.9417 S.3       1 <0>         0.0000
     15 S2          7.6899   -2.7568   -4.1975 S.o2      1 <0>         0.0000
     16 H1          3.8734    1.6906   -5.6659 H         1 <0>         0.0000
     17 H2          5.0025    3.4232   -0.6318 H         1 <0>         0.0000
     18 H3          5.2372    1.7772    0.0451 H         1 <0>         0.0000
     19 H4          3.6507    2.5745    0.1910 H         1 <0>         0.0000
     20 H5          7.3540   -3.8907   -2.1699 H         1 <0>         0.0000
     21 H6          8.2458   -2.3446   -1.9302 H         1 <0>         0.0000
     22 H7          6.4639   -2.3223   -2.2216 H         1 <0>         0.0000
     23 H8          2.4633    0.9425   -3.5525 H         1 <0>         0.0000
     24 H9          2.8200   -0.7274   -3.0709 H         1 <0>         0.0000
     25 H10         8.4203   -0.8172   -5.1454 H         1 <0>         0.0000
@<TRIPOS>BOND
     1    1    2 2
     2    1   14 1
     3    1   16 1
     4    2    7 1
     5    2    8 1
     6    3    8 2
     7    3    9 1
     8    3   14 1
     9    4    7 1
    10    4   10 2
    11    4   13 1
    12    5   13 1
    13    5   17 1
    14    5   18 1
    15    5   19 1
    16    6   15 1
    17    6   20 1
    18    6   21 1
    19    6   22 1
    20    7   23 1
    21    7   24 1
    22    9   15 1
    23    9   25 1
    24   11   15 2
    25   12   15 2
