@<TRIPOS>MOLECULE
*****
   25    25     0     0     0
SMALL
NO_CHARGES

@<TRIPOS>ATOM
      1 C1          4.7872    0.9344   -5.2410 C.2       1 <0>         0.0000
      2 C2          4.0510    0.2384   -4.3234 C.2       1 <0>         0.0000
      3 C3          5.7828   -1.1340   -4.4438 C.2       1 <0>         0.0000
      4 C4          1.5822   -0.2208   -4.3727 C.2       1 <0>         0.0000
      5 C5         -0.6536   -0.9128   -4.0460 C.3       1 <0>         0.0000
      6 C6          9.1797   -2.2762   -4.9734 C.3       1 <0>         0.0000
      7 C7          2.7061    0.6286   -3.7908 C.3       1 <0>         0.0000
      8 N1          4.6333   -0.9308   -3.8677 N.2       1 <0>         0.0000
      9 N2          6.5547   -2.2877   -4.2325 N.pl3     1 <0>         0.0000
     10 O1          1.6257   -0.8288   -5.4218 O.2       1 <0>         0.0000
     11 O2          8.3089   -0.8295   -2.9327 O.2       1 <0>         0.0000
     12 O3          8.2692   -3.3823   -2.7301 O.2       1 <0>         0.0000
     13 O4          0.4942   -0.1775   -3.5689 O.3       1 <0>         0.0000
     14 S1          6.2578    0.0847   -5.6078 S.3       1 <0>         0.0000
     15 S2          8.1298   -2.1566   -3.5172 S.o2      1 <0>         0.0000
     16 H1          4.5576    1.8793   -5.7154 H         1 <0>         0.0000
     17 H2         -1.4244   -0.7703   -3.2889 H         1 <0>         0.0000
     18 H3         -0.4072   -1.9716   -4.1522 H         1 <0>         0.0000
     19 H4         -0.9824   -0.5211   -5.0114 H         1 <0>         0.0000
     20 H5         10.2102   -2.2376   -4.6157 H         1 <0>         0.0000
     21 H6          8.9702   -3.2233   -5.4697 H         1 <0>         0.0000
     22 H7          8.9713   -1.4275   -5.6256 H         1 <0>         0.0000
     23 H8          2.6834    0.5440   -2.7013 H         1 <0>         0.0000
     24 H9          2.4836    1.6719   -4.0374 H         1 <0>         0.0000
     25 H10         6.0299   -2.9851   -3.7016 H         1 <0>         0.0000
@<TRIPOS>BOND
     1    1    2 2
     2    1   14 1
     3    1   16 1
     4    2    7 1
     5    2    8 1
     6    3    8 2
     7    3    9 1
     8    3   14 1
     9    4    7 1
    10    4   10 2
    11    4   13 1
    12    5   13 1
    13    5   17 1
    14    5   18 1
    15    5   19 1
    16    6   15 1
    17    6   20 1
    18    6   21 1
    19    6   22 1
    20    7   23 1
    21    7   24 1
    22    9   15 1
    23    9   25 1
    24   11   15 2
    25   12   15 2
