@<TRIPOS>MOLECULE
*****
   28    29     0     0     0
SMALL
NO_CHARGES

@<TRIPOS>ATOM
      1 C1          2.2417    0.7820   -0.3922 C.2       1 <0>         0.0000
      2 C2          5.7428    0.6358   -1.5547 C.3       1 <0>         0.0000
      3 C3          4.7311   -0.3352   -2.1180 C.3       1 <0>         0.0000
      4 C4         -0.2779    0.8358    1.6518 C.3       1 <0>         0.0000
      5 C5         -1.9855    2.3057    0.9689 C.3       1 <0>         0.0000
      6 C6          4.5929    0.1603   -0.7002 C.3       1 <0>         0.0000
      7 C7         -1.0958    2.0082    2.1766 C.3       1 <0>         0.0000
      8 C8          1.2479    1.9176   -0.0831 C.3       1 <0>         0.0000
      9 N1          3.5434    1.1116   -0.3919 N.am      1 <0>         0.0000
     10 N2         -0.0485    1.2238    0.2090 N.4       1 <0>         0.0000
     11 O1          1.7775   -0.3350   -0.6458 O.2       1 <0>         0.0000
     12 O2         -1.1541    2.0352   -0.2026 O.3       1 <0>         0.0000
     13 O3         -0.1758    3.0524    2.4619 O.3       1 <0>         0.0000
     14 H1          6.7335    0.2759   -1.2977 H         1 <0>         0.0000
     15 H2          5.7119    1.6583   -1.9205 H         1 <0>         0.0000
     16 H3          4.0220    0.0419   -2.8473 H         1 <0>         0.0000
     17 H4          5.0150   -1.3734   -2.2518 H         1 <0>         0.0000
     18 H5          0.6807    0.7105    2.1517 H         1 <0>         0.0000
     19 H6         -0.8398   -0.0982    1.6582 H         1 <0>         0.0000
     20 H7         -2.8625    1.6530    0.9329 H         1 <0>         0.0000
     21 H8         -2.2830    3.3520    0.8945 H         1 <0>         0.0000
     22 H9          4.8008   -0.5366    0.1067 H         1 <0>         0.0000
     23 H10        -1.6846    1.7172    3.0526 H         1 <0>         0.0000
     24 H11         1.0731    2.5277   -0.9718 H         1 <0>         0.0000
     25 H12         1.5072    2.5570    0.7596 H         1 <0>         0.0000
     26 H13         3.8134    2.0437   -0.0957 H         1 <0>         0.0000
     27 H14        -0.0233    0.3697   -0.3848 H         1 <0>         0.0000
     28 H15        -0.6209    3.7683    2.9445 H         1 <0>         0.0000
@<TRIPOS>BOND
     1    1    8 1
     2    1    9 am
     3    1   11 2
     4    2    3 1
     5    2    6 1
     6    2   14 1
     7    2   15 1
     8    3    6 1
     9    3   16 1
    10    3   17 1
    11    4    7 1
    12    4   10 1
    13    4   18 1
    14    4   19 1
    15    5    7 1
    16    5   12 1
    17    5   20 1
    18    5   21 1
    19    6    9 1
    20    6   22 1
    21    7   13 1
    22    7   23 1
    23    8   10 1
    24    8   24 1
    25    8   25 1
    26    9   26 1
    27   10   12 1
    28   10   27 1
    29   13   28 1
