@<TRIPOS>MOLECULE
*****
   35    37     0     0     0
SMALL
NO_CHARGES

@<TRIPOS>ATOM
      1 C1          3.0731   -0.1264    4.6599 C.ar      1 <0>         0.0000
      2 C2          3.0007   -0.8263    5.8829 C.ar      1 <0>         0.0000
      3 C3          1.9937   -0.1244    3.7916 C.ar      1 <0>         0.0000
      4 C4         -0.3507   -0.8880    3.3110 C.2       1 <0>         0.0000
      5 C5         -3.7500   -3.1909    4.8020 C.ar      1 <0>         0.0000
      6 C6          1.8527   -1.5259    6.2437 C.ar      1 <0>         0.0000
      7 C7         -4.7736   -3.9360    5.3463 C.ar      1 <0>         0.0000
      8 C8         -1.4552   -1.5937    3.7177 C.2       1 <0>         0.0000
      9 C9         -2.3922   -3.6725    6.7697 C.ar      1 <0>         0.0000
     10 C10         0.8138   -0.8260    4.1305 C.ar      1 <0>         0.0000
     11 C11        -2.5298   -3.0410    5.5053 C.ar      1 <0>         0.0000
     12 C12         0.7737   -1.5161    5.3614 C.ar      1 <0>         0.0000
     13 C13        -4.6475   -4.5665    6.6028 C.ar      1 <0>         0.0000
     14 C14        -3.4154   -4.4242    7.3250 C.ar      1 <0>         0.0000
     15 C15        -1.4536   -2.2725    4.9612 C.2       1 <0>         0.0000
     16 C16        -5.8711   -5.9668    8.2347 C.3       1 <0>         0.0000
     17 C17        -2.1225   -4.9347    9.2811 C.3       1 <0>         0.0000
     18 O1         -0.3513   -2.2098    5.7296 O.3       1 <0>         0.0000
     19 O2         -5.7276   -5.2474    6.9839 O.3       1 <0>         0.0000
     20 O3         -3.3348   -5.0503    8.5271 O.3       1 <0>         0.0000
     21 H1          3.9800    0.4113    4.4022 H         1 <0>         0.0000
     22 H2          3.8532   -0.8206    6.5554 H         1 <0>         0.0000
     23 H3          2.0397    0.4114    2.8477 H         1 <0>         0.0000
     24 H4         -0.3589   -0.3696    2.3557 H         1 <0>         0.0000
     25 H5         -3.9060   -2.7301    3.8340 H         1 <0>         0.0000
     26 H6          1.7840   -2.0682    7.1812 H         1 <0>         0.0000
     27 H7         -5.7160   -4.0621    4.8234 H         1 <0>         0.0000
     28 H8         -2.3369   -1.6386    3.0934 H         1 <0>         0.0000
     29 H9         -1.4609   -3.5602    7.3073 H         1 <0>         0.0000
     30 H10        -6.8806   -6.3731    8.1897 H         1 <0>         0.0000
     31 H11        -5.7704   -5.2879    9.0813 H         1 <0>         0.0000
     32 H12        -5.1385   -6.7707    8.3011 H         1 <0>         0.0000
     33 H13        -2.2900   -5.5083   10.1919 H         1 <0>         0.0000
     34 H14        -1.9204   -3.8890    9.5378 H         1 <0>         0.0000
     35 H15        -1.2773   -5.3607    8.7292 H         1 <0>         0.0000
@<TRIPOS>BOND
     1    1    2 ar
     2    1    3 ar
     3    1   21 1
     4    2    6 ar
     5    2   22 1
     6    3   10 ar
     7    3   23 1
     8    4    8 1
     9    4   10 2
    10    4   24 1
    11    5    7 ar
    12    5   11 ar
    13    5   25 1
    14    6   12 ar
    15    6   26 1
    16    7   13 ar
    17    7   27 1
    18    8   15 2
    19    8   28 1
    20    9   11 ar
    21    9   14 ar
    22    9   29 1
    23   10   12 ar
    24   11   15 1
    25   12   18 2
    26   13   14 ar
    27   13   19 1
    28   14   20 1
    29   15   18 1
    30   16   19 1
    31   16   30 1
    32   16   31 1
    33   16   32 1
    34   17   20 1
    35   17   33 1
    36   17   34 1
    37   17   35 1
