@<TRIPOS>MOLECULE
*****
   25    25     0     0     0
SMALL
NO_CHARGES

@<TRIPOS>ATOM
      1 C1          4.3283    1.3344   -5.2248 C.2       1 <0>         0.0000
      2 C2          3.7570    0.6631   -4.1805 C.2       1 <0>         0.0000
      3 C3          5.5945   -0.5543   -4.3883 C.2       1 <0>         0.0000
      4 C4          2.6610    1.6385   -2.1415 C.2       1 <0>         0.0000
      5 C5          1.6133    2.0929   -0.0726 C.3       1 <0>         0.0000
      6 C6          5.6392   -3.4493   -5.8558 C.3       1 <0>         0.0000
      7 C7          2.4594    1.0007   -3.5115 C.3       1 <0>         0.0000
      8 N1          4.4807   -0.4236   -3.7210 N.2       1 <0>         0.0000
      9 N2          6.5518   -1.5249   -4.0596 N.pl3     1 <0>         0.0000
     10 O1          3.6523    2.2363   -1.7798 O.2       1 <0>         0.0000
     11 O2          7.6586   -1.8045   -6.3305 O.2       1 <0>         0.0000
     12 O3          7.9314   -3.5824   -4.5029 O.2       1 <0>         0.0000
     13 O4          1.5528    1.4809   -1.3797 O.3       1 <0>         0.0000
     14 S1          5.8606    0.6307   -5.6498 S.3       1 <0>         0.0000
     15 S2          7.1231   -2.6191   -5.2439 S.o2      1 <0>         0.0000
     16 H1          3.9430    2.1897   -5.7647 H         1 <0>         0.0000
     17 H2          0.6542    1.8726    0.3954 H         1 <0>         0.0000
     18 H3          1.7606    3.1715   -0.1639 H         1 <0>         0.0000
     19 H4          2.4342    1.6656    0.5075 H         1 <0>         0.0000
     20 H5          5.9636   -4.1203   -6.6531 H         1 <0>         0.0000
     21 H6          5.1901   -4.0108   -5.0360 H         1 <0>         0.0000
     22 H7          4.9548   -2.6953   -6.2466 H         1 <0>         0.0000
     23 H8          1.8911    1.7139   -4.1177 H         1 <0>         0.0000
     24 H9          1.8372    0.1093   -3.3958 H         1 <0>         0.0000
     25 H10         6.3335   -1.9982   -3.1832 H         1 <0>         0.0000
@<TRIPOS>BOND
     1    1    2 2
     2    1   14 1
     3    1   16 1
     4    2    7 1
     5    2    8 1
     6    3    8 2
     7    3    9 1
     8    3   14 1
     9    4    7 1
    10    4   10 2
    11    4   13 1
    12    5   13 1
    13    5   17 1
    14    5   18 1
    15    5   19 1
    16    6   15 1
    17    6   20 1
    18    6   21 1
    19    6   22 1
    20    7   23 1
    21    7   24 1
    22    9   15 1
    23    9   25 1
    24   11   15 2
    25   12   15 2
