@<TRIPOS>MOLECULE
*****
   18    18     0     0     0
SMALL
NO_CHARGES

@<TRIPOS>ATOM
      1 C1          0.1374    0.1202    0.2274 C.1       1 <0>         0.0000
      2 C2         -0.8738   -1.8559   -2.6849 C.2       1 <0>         0.0000
      3 C3          0.5130    0.5061    1.4247 C.2       1 <0>         0.0000
      4 C4         -0.2426   -0.2320   -0.9853 C.2       1 <0>         0.0000
      5 C5         -1.0043   -3.3731   -2.7642 C.3       1 <0>         0.0000
      6 C6         -0.1793   -3.8938   -1.5757 C.3       1 <0>         0.0000
      7 C7         -0.1693   -2.7182   -0.5763 C.3       1 <0>         0.0000
      8 N1         -0.3767   -1.5520   -1.4299 N.am      1 <0>         0.0000
      9 O1         -1.1687   -1.0352   -3.5437 O.2       1 <0>         0.0000
     10 H1          1.5622    0.6769    1.6676 H         1 <0>         0.0000
     11 H2         -0.2099    0.6768    2.2230 H         1 <0>         0.0000
     12 H3         -0.4862    0.5066   -1.7460 H         1 <0>         0.0000
     13 H4         -2.0684   -3.6200   -2.6708 H         1 <0>         0.0000
     14 H5         -0.6689   -3.7316   -3.7392 H         1 <0>         0.0000
     15 H6         -0.5876   -4.8032   -1.1295 H         1 <0>         0.0000
     16 H7          0.8441   -4.1078   -1.8970 H         1 <0>         0.0000
     17 H8         -0.9761   -2.7895    0.1651 H         1 <0>         0.0000
     18 H9          0.7755   -2.6267   -0.0328 H         1 <0>         0.0000
@<TRIPOS>BOND
     1    1    3 2
     2    1    4 2
     3    2    5 1
     4    2    8 am
     5    2    9 2
     6    3   10 1
     7    3   11 1
     8    4    8 1
     9    4   12 1
    10    5    6 1
    11    5   13 1
    12    5   14 1
    13    6    7 1
    14    6   15 1
    15    6   16 1
    16    7    8 1
    17    7   17 1
    18    7   18 1
