@<TRIPOS>MOLECULE
*****
   28    29     0     0     0
SMALL
NO_CHARGES

@<TRIPOS>ATOM
      1 C1          1.9321   -0.1017   -0.1296 C.2       1 <0>         0.0000
      2 C2          1.9249   -2.4001   -2.4371 C.3       1 <0>         0.0000
      3 C3          2.4992   -3.4890   -1.5592 C.3       1 <0>         0.0000
      4 C4         -0.7518    1.4701    2.1083 C.3       1 <0>         0.0000
      5 C5         -0.7883    2.0794   -0.2278 C.3       1 <0>         0.0000
      6 C6          2.8507   -2.0438   -1.3020 C.3       1 <0>         0.0000
      7 C7         -0.7548    2.6990    1.1921 C.3       1 <0>         0.0000
      8 C8          1.4060    0.4479    1.2097 C.3       1 <0>         0.0000
      9 N1          2.2868   -1.4142   -0.1268 N.am      1 <0>         0.0000
     10 N2         -0.1178    0.4145    1.2292 N.4       1 <0>         0.0000
     11 O1          1.9613    0.6438   -1.0981 O.2       1 <0>         0.0000
     12 O2         -0.7184    0.6288   -0.0440 O.3       1 <0>         0.0000
     13 O3          0.4402    3.4178    1.4571 O.3       1 <0>         0.0000
     14 H1          2.3092   -2.2796   -3.4441 H         1 <0>         0.0000
     15 H2          0.8754   -2.1535   -2.3153 H         1 <0>         0.0000
     16 H3          1.8257   -3.9776   -0.8607 H         1 <0>         0.0000
     17 H4          3.2810   -4.1277   -1.9566 H         1 <0>         0.0000
     18 H5         -0.1590    1.6193    3.0101 H         1 <0>         0.0000
     19 H6         -1.7577    1.1231    2.3439 H         1 <0>         0.0000
     20 H7         -1.7223    2.2450   -0.7647 H         1 <0>         0.0000
     21 H8          0.0753    2.3930   -0.8176 H         1 <0>         0.0000
     22 H9          3.8508   -1.6995   -1.5516 H         1 <0>         0.0000
     23 H10        -1.6419    3.3082    1.3896 H         1 <0>         0.0000
     24 H11         1.7049    1.4911    1.2947 H         1 <0>         0.0000
     25 H12         1.7192   -0.1070    2.0984 H         1 <0>         0.0000
     26 H13         2.4268   -1.8812    0.7624 H         1 <0>         0.0000
     27 H14        -0.4345   -0.5295    1.4743 H         1 <0>         0.0000
     28 H15         0.4122    4.2888    1.0276 H         1 <0>         0.0000
@<TRIPOS>BOND
     1    1    8 1
     2    1    9 am
     3    1   11 2
     4    2    3 1
     5    2    6 1
     6    2   14 1
     7    2   15 1
     8    3    6 1
     9    3   16 1
    10    3   17 1
    11    4    7 1
    12    4   10 1
    13    4   18 1
    14    4   19 1
    15    5    7 1
    16    5   12 1
    17    5   20 1
    18    5   21 1
    19    6    9 1
    20    6   22 1
    21    7   13 1
    22    7   23 1
    23    8   10 1
    24    8   24 1
    25    8   25 1
    26    9   26 1
    27   10   12 1
    28   10   27 1
    29   13   28 1
