@<TRIPOS>MOLECULE
*****
   28    29     0     0     0
SMALL
NO_CHARGES

@<TRIPOS>ATOM
      1 C1          1.3109    1.8636   -0.2009 C.2       1 <0>         0.0000
      2 C2          3.4561    3.4948   -2.7256 C.3       1 <0>         0.0000
      3 C3          3.5152    1.9937   -2.5616 C.3       1 <0>         0.0000
      4 C4         -1.4644    0.5066    1.8899 C.3       1 <0>         0.0000
      5 C5         -2.6823   -0.1165   -0.0427 C.3       1 <0>         0.0000
      6 C6          3.2108    2.8714   -1.3732 C.3       1 <0>         0.0000
      7 C7         -2.5272   -0.5043    1.4347 C.3       1 <0>         0.0000
      8 C8         -0.0965    2.0829    0.3995 C.3       1 <0>         0.0000
      9 N1          1.8560    2.8971   -0.8564 N.am      1 <0>         0.0000
     10 N2         -0.6140    0.7089    0.6707 N.4       1 <0>         0.0000
     11 O1          1.8371    0.7628   -0.0073 O.2       1 <0>         0.0000
     12 O2         -1.3424    0.2235   -0.4841 O.3       1 <0>         0.0000
     13 O3         -3.6886   -0.2812    2.1975 O.3       1 <0>         0.0000
     14 H1          4.3797    4.0487   -2.8558 H         1 <0>         0.0000
     15 H2          2.6011    3.9063   -3.2548 H         1 <0>         0.0000
     16 H3          2.6975    1.4087   -2.9689 H         1 <0>         0.0000
     17 H4          4.4810    1.5003   -2.5736 H         1 <0>         0.0000
     18 H5         -1.9533    1.4464    2.1497 H         1 <0>         0.0000
     19 H6         -0.8288    0.1674    2.7081 H         1 <0>         0.0000
     20 H7         -3.0039   -0.9278   -0.6962 H         1 <0>         0.0000
     21 H8         -3.3494    0.7461   -0.1394 H         1 <0>         0.0000
     22 H9          3.9718    2.9770   -0.6054 H         1 <0>         0.0000
     23 H10        -2.1525   -1.5293    1.5291 H         1 <0>         0.0000
     24 H11        -0.8034    2.5944   -0.2540 H         1 <0>         0.0000
     25 H12        -0.0121    2.6116    1.3522 H         1 <0>         0.0000
     26 H13         1.3393    3.7686   -0.9140 H         1 <0>         0.0000
     27 H14         0.2646    0.1320    0.6722 H         1 <0>         0.0000
     28 H15        -4.1910   -1.1053    2.2964 H         1 <0>         0.0000
@<TRIPOS>BOND
     1    1    8 1
     2    1    9 am
     3    1   11 2
     4    2    3 1
     5    2    6 1
     6    2   14 1
     7    2   15 1
     8    3    6 1
     9    3   16 1
    10    3   17 1
    11    4    7 1
    12    4   10 1
    13    4   18 1
    14    4   19 1
    15    5    7 1
    16    5   12 1
    17    5   20 1
    18    5   21 1
    19    6    9 1
    20    6   22 1
    21    7   13 1
    22    7   23 1
    23    8   10 1
    24    8   24 1
    25    8   25 1
    26    9   26 1
    27   10   12 1
    28   10   27 1
    29   13   28 1
