@<TRIPOS>MOLECULE
*****
   25    25     0     0     0
SMALL
NO_CHARGES

@<TRIPOS>ATOM
      1 C1          5.1614    1.2168   -5.2364 C.2       1 <0>         0.0000
      2 C2          4.4433    0.2299   -4.6201 C.2       1 <0>         0.0000
      3 C3          6.4730   -0.5854   -4.2473 C.2       1 <0>         0.0000
      4 C4          2.0973    1.2033   -5.0618 C.2       1 <0>         0.0000
      5 C5         -0.1436    1.8619   -5.4342 C.3       1 <0>         0.0000
      6 C6          6.1923   -3.7359   -2.9688 C.3       1 <0>         0.0000
      7 C7          2.9527    0.1034   -4.4674 C.3       1 <0>         0.0000
      8 N1          5.2008   -0.7819   -4.0497 N.2       1 <0>         0.0000
      9 N2          7.4550   -1.4709   -3.7903 N.pl3     1 <0>         0.0000
     10 O1          2.4806    2.2322   -5.5848 O.2       1 <0>         0.0000
     11 O2          6.7192   -3.3007   -5.5322 O.2       1 <0>         0.0000
     12 O3          8.6873   -3.6551   -3.9484 O.2       1 <0>         0.0000
     13 O4          0.7894    0.8862   -4.9209 O.3       1 <0>         0.0000
     14 S1          6.8633    0.8591   -5.1598 S.3       1 <0>         0.0000
     15 S2          7.3401   -3.1484   -4.2185 S.o2      1 <0>         0.0000
     16 H1          4.7927    2.1175   -5.7028 H         1 <0>         0.0000
     17 H2         -1.1322    1.4481   -5.2377 H         1 <0>         0.0000
     18 H3          0.0087    2.0058   -6.5062 H         1 <0>         0.0000
     19 H4         -0.0156    2.8174   -4.9204 H         1 <0>         0.0000
     20 H5          6.0268   -4.7946   -3.1773 H         1 <0>         0.0000
     21 H6          6.6536   -3.5916   -1.9922 H         1 <0>         0.0000
     22 H7          5.2740   -3.1578   -3.0721 H         1 <0>         0.0000
     23 H8          2.6250   -0.8483   -4.9000 H         1 <0>         0.0000
     24 H9          2.7010    0.0297   -3.4028 H         1 <0>         0.0000
     25 H10         8.4225   -1.1735   -3.9003 H         1 <0>         0.0000
@<TRIPOS>BOND
     1    1    2 2
     2    1   14 1
     3    1   16 1
     4    2    7 1
     5    2    8 1
     6    3    8 2
     7    3    9 1
     8    3   14 1
     9    4    7 1
    10    4   10 2
    11    4   13 1
    12    5   13 1
    13    5   17 1
    14    5   18 1
    15    5   19 1
    16    6   15 1
    17    6   20 1
    18    6   21 1
    19    6   22 1
    20    7   23 1
    21    7   24 1
    22    9   15 1
    23    9   25 1
    24   11   15 2
    25   12   15 2
