@<TRIPOS>MOLECULE
*****
   25    25     0     0     0
SMALL
NO_CHARGES

@<TRIPOS>ATOM
      1 C1          5.3581    1.2983   -4.8238 C.2       1 <0>         0.0000
      2 C2          4.2669    0.4845   -4.9514 C.2       1 <0>         0.0000
      3 C3          5.6857   -0.7066   -6.1724 C.2       1 <0>         0.0000
      4 C4          2.6233    1.9146   -3.5725 C.2       1 <0>         0.0000
      5 C5          0.9588    3.0459   -2.3298 C.3       1 <0>         0.0000
      6 C6          4.2608   -3.7153   -6.9195 C.3       1 <0>         0.0000
      7 C7          2.8905    0.6550   -4.3704 C.3       1 <0>         0.0000
      8 N1          4.4618   -0.6452   -5.7315 N.2       1 <0>         0.0000
      9 N2          6.1504   -1.7591   -6.9686 N.pl3     1 <0>         0.0000
     10 O1          3.3974    2.8270   -3.3551 O.2       1 <0>         0.0000
     11 O2          6.8881   -4.1457   -7.2407 O.2       1 <0>         0.0000
     12 O3          6.0159   -3.4406   -4.9493 O.2       1 <0>         0.0000
     13 O4          1.3511    1.8965   -3.1115 O.3       1 <0>         0.0000
     14 S1          6.7196    0.6145   -5.6658 S.3       1 <0>         0.0000
     15 S2          5.9508   -3.3888   -6.4080 S.o2      1 <0>         0.0000
     16 H1          5.4280    2.2441   -4.3085 H         1 <0>         0.0000
     17 H2         -0.0763    2.8613   -2.0438 H         1 <0>         0.0000
     18 H3          1.0378    3.9568   -2.9275 H         1 <0>         0.0000
     19 H4          1.5933    3.1387   -1.4456 H         1 <0>         0.0000
     20 H5          4.0239   -4.7226   -6.5719 H         1 <0>         0.0000
     21 H6          3.6261   -2.9671   -6.4445 H         1 <0>         0.0000
     22 H7          4.2185   -3.6508   -8.0064 H         1 <0>         0.0000
     23 H8          2.1473    0.6061   -5.1743 H         1 <0>         0.0000
     24 H9          2.6629   -0.2015   -3.7253 H         1 <0>         0.0000
     25 H10         7.0891   -1.6601   -7.3504 H         1 <0>         0.0000
@<TRIPOS>BOND
     1    1    2 2
     2    1   14 1
     3    1   16 1
     4    2    7 1
     5    2    8 1
     6    3    8 2
     7    3    9 1
     8    3   14 1
     9    4    7 1
    10    4   10 2
    11    4   13 1
    12    5   13 1
    13    5   17 1
    14    5   18 1
    15    5   19 1
    16    6   15 1
    17    6   20 1
    18    6   21 1
    19    6   22 1
    20    7   23 1
    21    7   24 1
    22    9   15 1
    23    9   25 1
    24   11   15 2
    25   12   15 2
