@<TRIPOS>MOLECULE
*****
   28    29     0     0     0
SMALL
NO_CHARGES

@<TRIPOS>ATOM
      1 C1          1.7196    2.2445    0.5002 C.2       1 <0>         0.0000
      2 C2          4.6836    4.3893    1.0387 C.3       1 <0>         0.0000
      3 C3          4.0360    4.3503   -0.3261 C.3       1 <0>         0.0000
      4 C4         -1.0036    1.1239   -0.6499 C.3       1 <0>         0.0000
      5 C5          0.6010   -0.7264   -0.6657 C.3       1 <0>         0.0000
      6 C6          4.0017    3.1306    0.5612 C.3       1 <0>         0.0000
      7 C7         -0.3475    0.0722   -1.5887 C.3       1 <0>         0.0000
      8 C8          0.4587    1.9748    1.3331 C.3       1 <0>         0.0000
      9 N1          2.7503    2.7604    1.1929 N.am      1 <0>         0.0000
     10 N2         -0.3971    0.8947    0.7283 N.4       1 <0>         0.0000
     11 O1          1.7205    2.0375   -0.7146 O.2       1 <0>         0.0000
     12 O2          0.3001   -0.3607    0.7173 O.3       1 <0>         0.0000
     13 O3          0.2841    0.6286   -2.7031 O.3       1 <0>         0.0000
     14 H1          5.7659    4.3700    1.1099 H         1 <0>         0.0000
     15 H2          4.1882    4.9715    1.8105 H         1 <0>         0.0000
     16 H3          3.1078    4.8964   -0.4585 H         1 <0>         0.0000
     17 H4          4.6672    4.3019   -1.2068 H         1 <0>         0.0000
     18 H5         -0.7834    2.1364   -0.9753 H         1 <0>         0.0000
     19 H6         -2.0786    0.9791   -0.5437 H         1 <0>         0.0000
     20 H7          0.4393   -1.8037   -0.7048 H         1 <0>         0.0000
     21 H8          1.6408   -0.4810   -0.8807 H         1 <0>         0.0000
     22 H9          4.6173    2.2792    0.2853 H         1 <0>         0.0000
     23 H10        -1.1276   -0.5779   -1.9867 H         1 <0>         0.0000
     24 H11        -0.1638    2.8739    1.3836 H         1 <0>         0.0000
     25 H12         0.6881    1.6426    2.3473 H         1 <0>         0.0000
     26 H13         2.7013    2.7999    2.2054 H         1 <0>         0.0000
     27 H14        -1.1555    0.7228    1.3963 H         1 <0>         0.0000
     28 H15         0.9972    1.2152   -2.3873 H         1 <0>         0.0000
@<TRIPOS>BOND
     1    1    8 1
     2    1    9 am
     3    1   11 2
     4    2    3 1
     5    2    6 1
     6    2   14 1
     7    2   15 1
     8    3    6 1
     9    3   16 1
    10    3   17 1
    11    4    7 1
    12    4   10 1
    13    4   18 1
    14    4   19 1
    15    5    7 1
    16    5   12 1
    17    5   20 1
    18    5   21 1
    19    6    9 1
    20    6   22 1
    21    7   13 1
    22    7   23 1
    23    8   10 1
    24    8   24 1
    25    8   25 1
    26    9   26 1
    27   10   12 1
    28   10   27 1
    29   13   28 1
