@<TRIPOS>MOLECULE
*****
    8     7     0     0     0
SMALL
NO_CHARGES

@<TRIPOS>ATOM
      1 C1          0.2861    0.0483    0.6601 C.3       1 <0>         0.0000
      2 C2         -0.4058   -0.0314   -0.7420 C.3       1 <0>         0.0000
      3 F1          0.3755   -1.1804    1.1958 F         1 <0>         0.0000
      4 F2          1.5340    0.5305    0.4965 F         1 <0>         0.0000
      5 F3         -0.5130    1.2237   -1.2305 F         1 <0>         0.0000
      6 Cl1         0.6128   -0.9910   -1.8449 Cl        1 <0>         0.0000
      7 Br1        -0.6743    1.2326    1.8884 Br        1 <0>         0.0000
      8 Br2        -2.1954   -0.8164   -0.5966 Br        1 <0>         0.0000
@<TRIPOS>BOND
     1    1    2 1
     2    1    3 1
     3    1    4 1
     4    1    7 1
     5    2    5 1
     6    2    6 1
     7    2    8 1
