@<TRIPOS>MOLECULE
*****
    9     8     0     0     0
SMALL
NO_CHARGES

@<TRIPOS>ATOM
      1 C1          0.1107   -0.3653   -0.1464 C.2       1 <0>         0.0000
      2 C2          0.1028    0.9310   -0.9085 C.3       1 <0>         0.0000
      3 O1          0.8865   -1.2936   -0.2904 O.2       1 <0>         0.0000
      4 O2         -0.8931   -1.6390    1.5094 O.3       1 <0>         0.0000
      5 O3         -0.8909   -0.3986    0.7708 O.3       1 <0>         0.0000
      6 H1         -0.0054    0.7080   -1.9730 H         1 <0>         0.0000
      7 H2         -0.7038    1.5883   -0.5824 H         1 <0>         0.0000
      8 H3          1.0670    1.4253   -0.7637 H         1 <0>         0.0000
      9 H4         -0.1227   -2.1062    1.0965 H         1 <0>         0.0000
@<TRIPOS>BOND
     1    1    2 1
     2    1    3 2
     3    1    5 1
     4    2    6 1
     5    2    7 1
     6    2    8 1
     7    4    5 1
     8    4    9 1
