@<TRIPOS>MOLECULE
*****
   18    18     0     0     0
SMALL
NO_CHARGES

@<TRIPOS>ATOM
      1 C1         -0.5054    1.0043   -2.0172 C.1       1 <0>         0.0000
      2 C2         -0.7730   -1.8898   -2.8089 C.2       1 <0>         0.0000
      3 C3         -0.7646    2.1217   -2.6512 C.2       1 <0>         0.0000
      4 C4         -0.1907   -0.0385   -1.2727 C.2       1 <0>         0.0000
      5 C5         -0.8458   -3.4101   -2.6852 C.3       1 <0>         0.0000
      6 C6         -0.0005   -3.7341   -1.4441 C.3       1 <0>         0.0000
      7 C7         -0.0708   -2.4439   -0.6051 C.3       1 <0>         0.0000
      8 N1         -0.2895   -1.4006   -1.6094 N.am      1 <0>         0.0000
      9 O1         -1.0984   -1.2088   -3.7705 O.2       1 <0>         0.0000
     10 H1         -0.0197    2.6017   -3.2853 H         1 <0>         0.0000
     11 H2         -1.7488    2.5871   -2.6038 H         1 <0>         0.0000
     12 H3          0.2067    0.1330   -0.2739 H         1 <0>         0.0000
     13 H4         -1.8991   -3.6840   -2.5519 H         1 <0>         0.0000
     14 H5         -0.4970   -3.8819   -3.6057 H         1 <0>         0.0000
     15 H6         -0.3557   -4.6037   -0.8866 H         1 <0>         0.0000
     16 H7          1.0364   -3.9218   -1.7382 H         1 <0>         0.0000
     17 H8         -0.9041   -2.4669    0.1108 H         1 <0>         0.0000
     18 H9          0.8511   -2.2542   -0.0465 H         1 <0>         0.0000
@<TRIPOS>BOND
     1    1    3 2
     2    1    4 2
     3    2    5 1
     4    2    8 am
     5    2    9 2
     6    3   10 1
     7    3   11 1
     8    4    8 1
     9    4   12 1
    10    5    6 1
    11    5   13 1
    12    5   14 1
    13    6    7 1
    14    6   15 1
    15    6   16 1
    16    7    8 1
    17    7   17 1
    18    7   18 1
