@<TRIPOS>MOLECULE
*****
   25    25     0     0     0
SMALL
NO_CHARGES

@<TRIPOS>ATOM
      1 C1          5.1050    1.5045   -5.3501 C.2       1 <0>         0.0000
      2 C2          4.4600    0.7239   -4.4318 C.2       1 <0>         0.0000
      3 C3          6.1398   -0.6441   -4.8834 C.2       1 <0>         0.0000
      4 C4          3.4662    1.4347   -2.2375 C.2       1 <0>         0.0000
      5 C5          2.4536    1.6493   -0.1130 C.3       1 <0>         0.0000
      6 C6          8.8106   -2.2299   -6.7429 C.3       1 <0>         0.0000
      7 C7          3.2042    1.0799   -3.6964 C.3       1 <0>         0.0000
      8 N1          5.0516   -0.5017   -4.1836 N.2       1 <0>         0.0000
      9 N2          6.9880   -1.7573   -4.7691 N.pl3     1 <0>         0.0000
     10 O1          4.5224    1.8212   -1.7823 O.2       1 <0>         0.0000
     11 O2          7.3967   -4.1332   -5.5332 O.2       1 <0>         0.0000
     12 O3          6.2122   -2.5410   -7.1520 O.2       1 <0>         0.0000
     13 O4          2.3346    1.2953   -1.5081 O.3       1 <0>         0.0000
     14 S1          6.5493    0.7158   -5.9076 S.3       1 <0>         0.0000
     15 S2          7.2212   -2.8086   -6.1297 S.o2      1 <0>         0.0000
     16 H1          4.8230    2.4792   -5.7257 H         1 <0>         0.0000
     17 H2          1.4657    1.4796    0.3144 H         1 <0>         0.0000
     18 H3          2.7450    2.6972   -0.0096 H         1 <0>         0.0000
     19 H4          3.1997    1.0184    0.3751 H         1 <0>         0.0000
     20 H5          9.0631   -2.8645   -7.5943 H         1 <0>         0.0000
     21 H6          8.7064   -1.1918   -7.0600 H         1 <0>         0.0000
     22 H7          9.5440   -2.3327   -5.9437 H         1 <0>         0.0000
     23 H8          2.7219    1.9475   -4.1585 H         1 <0>         0.0000
     24 H9          2.4876    0.2555   -3.7351 H         1 <0>         0.0000
     25 H10         6.7221   -2.3377   -3.9716 H         1 <0>         0.0000
@<TRIPOS>BOND
     1    1    2 2
     2    1   14 1
     3    1   16 1
     4    2    7 1
     5    2    8 1
     6    3    8 2
     7    3    9 1
     8    3   14 1
     9    4    7 1
    10    4   10 2
    11    4   13 1
    12    5   13 1
    13    5   17 1
    14    5   18 1
    15    5   19 1
    16    6   15 1
    17    6   20 1
    18    6   21 1
    19    6   22 1
    20    7   23 1
    21    7   24 1
    22    9   15 1
    23    9   25 1
    24   11   15 2
    25   12   15 2
