@<TRIPOS>MOLECULE
*****
   20    19     0     0     0
SMALL
NO_CHARGES

@<TRIPOS>ATOM
      1 C1         -1.3467   -1.2986   -0.4902 C.2       1 <0>         0.0000
      2 C2         -1.5034   -2.8079   -0.5213 C.3       1 <0>         0.0000
      3 C3         -0.8017    2.4295   -1.0612 C.3       1 <0>         0.0000
      4 C4          2.4014    0.3465    1.2929 C.3       1 <0>         0.0000
      5 N1         -0.6619   -0.8137    0.6252 N.am      1 <0>         0.0000
      6 O1         -1.7761   -0.5609   -1.3638 O.2       1 <0>         0.0000
      7 O2         -1.8068    1.4426    1.6250 O.2       1 <0>         0.0000
      8 O3          0.0251    1.5321   -0.2663 O.3       1 <0>         0.0000
      9 P1         -0.5744    0.8517    1.0548 P.3       1 <0>         0.0000
     10 S1          1.0280    0.8343    2.4166 S.3       1 <0>         0.0000
     11 H1         -2.1930   -3.1272    0.2679 H         1 <0>         0.0000
     12 H2         -0.5455   -3.3119   -0.3580 H         1 <0>         0.0000
     13 H3         -1.9116   -3.1006   -1.4883 H         1 <0>         0.0000
     14 H4         -0.1042    2.9971   -1.6774 H         1 <0>         0.0000
     15 H5         -1.3675    3.0973   -0.4092 H         1 <0>         0.0000
     16 H6         -1.4728    1.8309   -1.6772 H         1 <0>         0.0000
     17 H7          3.2987    0.2992    1.9132 H         1 <0>         0.0000
     18 H8          2.5309    1.0943    0.5106 H         1 <0>         0.0000
     19 H9          2.2155   -0.6317    0.8458 H         1 <0>         0.0000
     20 H10        -0.4823   -1.4712    1.3784 H         1 <0>         0.0000
@<TRIPOS>BOND
     1    1    2 1
     2    1    5 am
     3    1    6 2
     4    2   11 1
     5    2   12 1
     6    2   13 1
     7    3    8 1
     8    3   14 1
     9    3   15 1
    10    3   16 1
    11    4   10 1
    12    4   17 1
    13    4   18 1
    14    4   19 1
    15    5    9 1
    16    5   20 1
    17    7    9 2
    18    8    9 1
    19    9   10 1
