@<TRIPOS>MOLECULE
*****
   25    25     0     0     0
SMALL
NO_CHARGES

@<TRIPOS>ATOM
      1 C1          4.3898    1.4066   -5.2044 C.2       1 <0>         0.0000
      2 C2          3.5240    0.4820   -4.6913 C.2       1 <0>         0.0000
      3 C3          5.0168   -0.9077   -5.5526 C.2       1 <0>         0.0000
      4 C4          1.0159    0.4860   -4.8317 C.2       1 <0>         0.0000
      5 C5         -1.3066    0.0548   -4.7650 C.3       1 <0>         0.0000
      6 C6          7.2611   -2.4245   -3.7635 C.3       1 <0>         0.0000
      7 C7          2.2420    0.7701   -3.9712 C.3       1 <0>         0.0000
      8 N1          3.8998   -0.8364   -4.8816 N.2       1 <0>         0.0000
      9 N2          5.5676   -2.1324   -5.9566 N.pl3     1 <0>         0.0000
     10 O1          0.9916    0.4728   -6.0442 O.2       1 <0>         0.0000
     11 O2          7.3320   -3.9268   -5.9636 O.2       1 <0>         0.0000
     12 O3          8.0136   -1.4591   -6.1109 O.2       1 <0>         0.0000
     13 O4         -0.0718    0.2840   -4.0512 O.3       1 <0>         0.0000
     14 S1          5.7228    0.6293   -6.0063 S.3       1 <0>         0.0000
     15 S2          7.1848   -2.5302   -5.5659 S.o2      1 <0>         0.0000
     16 H1          4.3251    2.4859   -5.1575 H         1 <0>         0.0000
     17 H2         -2.0654   -0.0830   -3.9951 H         1 <0>         0.0000
     18 H3         -1.2226   -0.8373   -5.3895 H         1 <0>         0.0000
     19 H4         -1.5468    0.9141   -5.3955 H         1 <0>         0.0000
     20 H5          8.2970   -2.6234   -3.4831 H         1 <0>         0.0000
     21 H6          6.9709   -1.4175   -3.4615 H         1 <0>         0.0000
     22 H7          6.5943   -3.1767   -3.3410 H         1 <0>         0.0000
     23 H8          2.1702    0.1814   -3.0529 H         1 <0>         0.0000
     24 H9          2.1945    1.8252   -3.6821 H         1 <0>         0.0000
     25 H10         4.9350   -2.9135   -5.7845 H         1 <0>         0.0000
@<TRIPOS>BOND
     1    1    2 2
     2    1   14 1
     3    1   16 1
     4    2    7 1
     5    2    8 1
     6    3    8 2
     7    3    9 1
     8    3   14 1
     9    4    7 1
    10    4   10 2
    11    4   13 1
    12    5   13 1
    13    5   17 1
    14    5   18 1
    15    5   19 1
    16    6   15 1
    17    6   20 1
    18    6   21 1
    19    6   22 1
    20    7   23 1
    21    7   24 1
    22    9   15 1
    23    9   25 1
    24   11   15 2
    25   12   15 2
