@<TRIPOS>MOLECULE
*****
   16    15     0     0     0
SMALL
NO_CHARGES

@<TRIPOS>ATOM
      1 C1          0.5255    3.3312   -1.8821 C.1       1 <0>         0.0000
      2 C2          0.8154    4.4623   -2.1627 C.1       1 <0>         0.0000
      3 C3         -0.5009    1.7650   -0.4873 C.2       1 <0>         0.0000
      4 C4          0.4281    6.4465   -3.3311 C.2       1 <0>         0.0000
      5 C5         -0.7507    0.2844   -0.4283 C.3       1 <0>         0.0000
      6 C6          0.9988    7.8321   -3.4417 C.3       1 <0>         0.0000
      7 O1         -0.8390    2.6099    0.2957 O.2       1 <0>         0.0000
      8 O2         -0.5157    5.9805   -3.9086 O.2       1 <0>         0.0000
      9 O3          0.2316    2.0596   -1.6534 O.3       1 <0>         0.0000
     10 O4          1.1910    5.7097   -2.4046 O.3       1 <0>         0.0000
     11 H1         -1.3130   -0.0319   -1.3115 H         1 <0>         0.0000
     12 H2         -1.3101    0.0497    0.4763 H         1 <0>         0.0000
     13 H3          0.2011   -0.2541   -0.4338 H         1 <0>         0.0000
     14 H4          0.9737    8.3222   -2.4643 H         1 <0>         0.0000
     15 H5          0.4170    8.4042   -4.1632 H         1 <0>         0.0000
     16 H6          2.0447    7.7797   -3.7570 H         1 <0>         0.0000
@<TRIPOS>BOND
     1    1    2 3
     2    1    9 1
     3    2   10 1
     4    3    5 1
     5    3    7 2
     6    3    9 1
     7    4    6 1
     8    4    8 2
     9    4   10 1
    10    5   11 1
    11    5   12 1
    12    5   13 1
    13    6   14 1
    14    6   15 1
    15    6   16 1
