@<TRIPOS>MOLECULE
*****
   35    37     0     0     0
SMALL
NO_CHARGES

@<TRIPOS>ATOM
      1 C1          0.8592   -1.0828    1.9163 C.ar      1 <0>         0.0000
      2 C2         -0.3374   -1.5540    1.3342 C.ar      1 <0>         0.0000
      3 C3          1.0964   -1.2659    3.2682 C.ar      1 <0>         0.0000
      4 C4          0.2805   -2.1671    5.4662 C.2       1 <0>         0.0000
      5 C5         -4.0953   -4.3247    5.3433 C.ar      1 <0>         0.0000
      6 C6         -1.3003   -2.2084    2.0966 C.ar      1 <0>         0.0000
      7 C7         -5.1668   -4.9893    5.9184 C.ar      1 <0>         0.0000
      8 C8         -0.7031   -2.8184    6.1693 C.2       1 <0>         0.0000
      9 C9         -2.9674   -4.2665    7.5112 C.ar      1 <0>         0.0000
     10 C10         0.1370   -1.9274    4.0698 C.ar      1 <0>         0.0000
     11 C11        -2.9779   -3.9500    6.1214 C.ar      1 <0>         0.0000
     12 C12        -1.0495   -2.3865    3.4564 C.ar      1 <0>         0.0000
     13 C13        -5.1590   -5.3027    7.2888 C.ar      1 <0>         0.0000
     14 C14        -4.0309   -4.9296    8.0953 C.ar      1 <0>         0.0000
     15 C15        -1.8778   -3.2627    5.5145 C.2       1 <0>         0.0000
     16 C16        -7.3086   -6.3541    7.2111 C.3       1 <0>         0.0000
     17 C17        -3.0438   -4.9409   10.2693 C.3       1 <0>         0.0000
     18 O1         -2.0048   -3.0325    4.1963 O.3       1 <0>         0.0000
     19 O2         -6.1358   -5.9367    7.9342 O.3       1 <0>         0.0000
     20 O3         -4.1249   -5.2780    9.3946 O.3       1 <0>         0.0000
     21 H1          1.5931   -0.5757    1.2981 H         1 <0>         0.0000
     22 H2         -0.5120   -1.4045    0.2730 H         1 <0>         0.0000
     23 H3          2.0139   -0.9071    3.7261 H         1 <0>         0.0000
     24 H4          1.1790   -1.8285    5.9757 H         1 <0>         0.0000
     25 H5         -4.1209   -4.0918    4.2855 H         1 <0>         0.0000
     26 H6         -2.2241   -2.5755    1.6612 H         1 <0>         0.0000
     27 H7         -6.0137   -5.2662    5.3024 H         1 <0>         0.0000
     28 H8         -0.5900   -2.9965    7.2298 H         1 <0>         0.0000
     29 H9         -2.1230   -3.9924    8.1284 H         1 <0>         0.0000
     30 H10        -7.9411   -6.8419    7.9505 H         1 <0>         0.0000
     31 H11        -7.0420   -7.0645    6.4229 H         1 <0>         0.0000
     32 H12        -7.8286   -5.4888    6.7894 H         1 <0>         0.0000
     33 H13        -3.3357   -5.3112   11.2509 H         1 <0>         0.0000
     34 H14        -2.9008   -3.8550   10.3151 H         1 <0>         0.0000
     35 H15        -2.1163   -5.4326    9.9535 H         1 <0>         0.0000
@<TRIPOS>BOND
     1    1    2 ar
     2    1    3 ar
     3    1   21 1
     4    2    6 ar
     5    2   22 1
     6    3   10 ar
     7    3   23 1
     8    4    8 1
     9    4   10 2
    10    4   24 1
    11    5    7 ar
    12    5   11 ar
    13    5   25 1
    14    6   12 ar
    15    6   26 1
    16    7   13 ar
    17    7   27 1
    18    8   15 2
    19    8   28 1
    20    9   11 ar
    21    9   14 ar
    22    9   29 1
    23   10   12 ar
    24   11   15 1
    25   12   18 2
    26   13   14 ar
    27   13   19 1
    28   14   20 1
    29   15   18 1
    30   16   19 1
    31   16   30 1
    32   16   31 1
    33   16   32 1
    34   17   20 1
    35   17   33 1
    36   17   34 1
    37   17   35 1
