@<TRIPOS>MOLECULE
*****
   10     9     0     0     0
SMALL
NO_CHARGES

@<TRIPOS>ATOM
      1 C1          0.5513    0.1803   -0.7299 C.2       1 <0>         0.0000
      2 C2         -1.1929    0.0764    1.0020 C.3       1 <0>         0.0000
      3 N1         -0.0138   -0.4622    0.3313 N.am      1 <0>         0.0000
      4 O1          0.0980    1.1751   -1.2693 O.2       1 <0>         0.0000
      5 S1          2.0775   -0.6483   -1.2979 S.3       1 <0>         0.0000
      6 H1         -0.9273    0.8266    1.7563 H         1 <0>         0.0000
      7 H2         -1.7363   -0.7417    1.4810 H         1 <0>         0.0000
      8 H3         -1.8363    0.5456    0.2572 H         1 <0>         0.0000
      9 H4          0.5156   -1.1905    0.7924 H         1 <0>         0.0000
     10 H5          2.3226    0.2878   -2.2326 H         1 <0>         0.0000
@<TRIPOS>BOND
     1    1    3 am
     2    1    4 2
     3    1    5 1
     4    2    3 1
     5    2    6 1
     6    2    7 1
     7    2    8 1
     8    3    9 1
     9    5   10 1
