@<TRIPOS>MOLECULE
*****
   28    29     0     0     0
SMALL
NO_CHARGES

@<TRIPOS>ATOM
      1 C1          1.4892    2.0122   -0.3411 C.2       1 <0>         0.0000
      2 C2          3.8155    4.8338   -0.9174 C.3       1 <0>         0.0000
      3 C3          3.4133    3.9530   -2.0781 C.3       1 <0>         0.0000
      4 C4         -0.7986   -0.1479   -0.7893 C.3       1 <0>         0.0000
      5 C5          1.0156   -1.4357    0.0579 C.3       1 <0>         0.0000
      6 C6          3.4923    3.3776   -0.6863 C.3       1 <0>         0.0000
      7 C7         -0.2989   -1.5997   -0.7188 C.3       1 <0>         0.0000
      8 C8          0.1954    1.8804    0.4847 C.3       1 <0>         0.0000
      9 N1          2.2608    3.0634    0.0083 N.am      1 <0>         0.0000
     10 N2         -0.2920    0.4582    0.5053 N.4       1 <0>         0.0000
     11 O1          1.7221    1.2327   -1.2602 O.2       1 <0>         0.0000
     12 O2          0.7336   -0.4032    1.0508 O.3       1 <0>         0.0000
     13 O3         -0.1273   -2.0544   -2.0383 O.3       1 <0>         0.0000
     14 H1          4.8534    5.1337   -0.8182 H         1 <0>         0.0000
     15 H2          3.0950    5.5719   -0.5764 H         1 <0>         0.0000
     16 H3          2.4245    4.0966   -2.5007 H         1 <0>         0.0000
     17 H4          4.1714    3.6372   -2.7865 H         1 <0>         0.0000
     18 H5         -0.3223    0.3608   -1.6230 H         1 <0>         0.0000
     19 H6         -1.8839   -0.0427   -0.8101 H         1 <0>         0.0000
     20 H7          1.3061   -2.3097    0.6417 H         1 <0>         0.0000
     21 H8          1.8134   -1.1004   -0.6058 H         1 <0>         0.0000
     22 H9          4.3074    2.6949   -0.4630 H         1 <0>         0.0000
     23 H10        -1.0034   -2.2237   -0.1555 H         1 <0>         0.0000
     24 H11        -0.6079    2.4802    0.0456 H         1 <0>         0.0000
     25 H12         0.3298    2.1703    1.5285 H         1 <0>         0.0000
     26 H13         2.0528    3.5764    0.8579 H         1 <0>         0.0000
     27 H14        -1.0391    0.4060    1.2057 H         1 <0>         0.0000
     28 H15        -0.2123   -3.0203   -2.0732 H         1 <0>         0.0000
@<TRIPOS>BOND
     1    1    8 1
     2    1    9 am
     3    1   11 2
     4    2    3 1
     5    2    6 1
     6    2   14 1
     7    2   15 1
     8    3    6 1
     9    3   16 1
    10    3   17 1
    11    4    7 1
    12    4   10 1
    13    4   18 1
    14    4   19 1
    15    5    7 1
    16    5   12 1
    17    5   20 1
    18    5   21 1
    19    6    9 1
    20    6   22 1
    21    7   13 1
    22    7   23 1
    23    8   10 1
    24    8   24 1
    25    8   25 1
    26    9   26 1
    27   10   12 1
    28   10   27 1
    29   13   28 1
