@<TRIPOS>MOLECULE
*****
   40    40     0     0     0
SMALL
NO_CHARGES

@<TRIPOS>ATOM
      1 C1          9.6748   -1.8858   -0.8863 C.2       1 <0>         0.0000
      2 C2          7.9630   -1.9222    0.7164 C.2       1 <0>         0.0000
      3 C3         10.7371   -1.5598   -1.8940 C.2       1 <0>         0.0000
      4 C4          7.5590   -2.0565    8.4796 C.3       1 <0>         0.0000
      5 C5         15.5249   -3.5067   -1.2313 C.3       1 <0>         0.0000
      6 C6          6.7652   -1.7780    7.1987 C.3       1 <0>         0.0000
      7 C7         14.1450   -3.6412   -1.8848 C.3       1 <0>         0.0000
      8 C8          7.5775   -2.0440    5.9255 C.3       1 <0>         0.0000
      9 C9         13.7736   -2.4241   -2.7388 C.3       1 <0>         0.0000
     10 C10         6.7835   -1.7550    4.6444 C.3       1 <0>         0.0000
     11 C11        12.4037   -2.5408   -3.4193 C.3       1 <0>         0.0000
     12 C12         7.6148   -2.0187    3.3918 C.3       1 <0>         0.0000
     13 N1          9.3646   -3.1045   -0.5176 N.2       1 <0>         0.0000
     14 N2          8.3598   -3.1277    0.4123 N.2       1 <0>         0.0000
     15 N3         11.2970   -2.6491   -2.4711 N.am      1 <0>         0.0000
     16 O1         11.0278   -0.3883   -2.1411 O.2       1 <0>         0.0000
     17 O2          6.4850   -0.0598    1.8936 O.2       1 <0>         0.0000
     18 S1          8.7628   -0.6215   -0.1162 S.3       1 <0>         0.0000
     19 S2          6.6240   -1.5694    1.8947 S.o       1 <0>         0.0000
     20 H1          7.8872   -3.1014    8.5229 H         1 <0>         0.0000
     21 H2          8.4535   -1.4255    8.5353 H         1 <0>         0.0000
     22 H3          6.9560   -1.8591    9.3721 H         1 <0>         0.0000
     23 H4         15.5664   -2.6275   -0.5785 H         1 <0>         0.0000
     24 H5         15.7664   -4.3857   -0.6245 H         1 <0>         0.0000
     25 H6         16.3111   -3.3954   -1.9868 H         1 <0>         0.0000
     26 H7          6.4240   -0.7349    7.1967 H         1 <0>         0.0000
     27 H8          5.8590   -2.3972    7.1857 H         1 <0>         0.0000
     28 H9         14.1215   -4.5451   -2.5092 H         1 <0>         0.0000
     29 H10        13.3878   -3.7838   -1.1036 H         1 <0>         0.0000
     30 H11         7.9175   -3.0884    5.9212 H         1 <0>         0.0000
     31 H12         8.4841   -1.4243    5.9375 H         1 <0>         0.0000
     32 H13        13.7818   -1.5165   -2.1245 H         1 <0>         0.0000
     33 H14        14.5278   -2.2789   -3.5232 H         1 <0>         0.0000
     34 H15         6.4556   -0.7097    4.6425 H         1 <0>         0.0000
     35 H16         5.8786   -2.3756    4.6249 H         1 <0>         0.0000
     36 H17        12.3692   -3.4237   -4.0661 H         1 <0>         0.0000
     37 H18        12.2185   -1.6607   -4.0394 H         1 <0>         0.0000
     38 H19         7.8892   -3.0720    3.2762 H         1 <0>         0.0000
     39 H20         8.5156   -1.3979    3.3622 H         1 <0>         0.0000
     40 H21        10.9933   -3.5557   -2.1342 H         1 <0>         0.0000
@<TRIPOS>BOND
     1    1    3 1
     2    1   13 2
     3    1   18 1
     4    2   14 2
     5    2   18 1
     6    2   19 1
     7    3   15 am
     8    3   16 2
     9    4    6 1
    10    4   20 1
    11    4   21 1
    12    4   22 1
    13    5    7 1
    14    5   23 1
    15    5   24 1
    16    5   25 1
    17    6    8 1
    18    6   26 1
    19    6   27 1
    20    7    9 1
    21    7   28 1
    22    7   29 1
    23    8   10 1
    24    8   30 1
    25    8   31 1
    26    9   11 1
    27    9   32 1
    28    9   33 1
    29   10   12 1
    30   10   34 1
    31   10   35 1
    32   11   15 1
    33   11   36 1
    34   11   37 1
    35   12   19 1
    36   12   38 1
    37   12   39 1
    38   13   14 1
    39   15   40 1
    40   17   19 2
