@<TRIPOS>MOLECULE
*****
   32    33     0     0     0
SMALL
NO_CHARGES

@<TRIPOS>ATOM
      1 C1          0.6454   -2.0753    1.4510 C.ar      1 <0>         0.0000
      2 C2         -0.7452   -2.2522    1.3381 C.ar      1 <0>         0.0000
      3 C3          1.2363   -0.9545    0.8824 C.ar      1 <0>         0.0000
      4 C4         -1.5345   -1.3150    0.6768 C.ar      1 <0>         0.0000
      5 C5          0.4602   -0.0011    0.1982 C.ar      1 <0>         0.0000
      6 C6         -0.9352   -0.1827    0.1078 C.ar      1 <0>         0.0000
      7 C7          1.0949    1.1556   -0.4653 C.2       1 <0>         0.0000
      8 C8         -2.6289    5.0698   -1.6948 C.2       1 <0>         0.0000
      9 C9          0.1553    1.9835   -1.3275 C.3       1 <0>         0.0000
     10 C10        -1.2606    2.0505   -0.7455 C.3       1 <0>         0.0000
     11 C11        -2.2218    6.4073   -2.2893 C.3       1 <0>         0.0000
     12 C12        -1.3056    2.8219    0.5750 C.3       1 <0>         0.0000
     13 C13        -2.2639    2.6170   -1.7669 C.3       1 <0>         0.0000
     14 N1         -1.9600    3.9747   -2.1864 N.am      1 <0>         0.0000
     15 O1          2.2904    1.4136   -0.3781 O.2       1 <0>         0.0000
     16 O2         -3.4888    4.9808   -0.8219 O.2       1 <0>         0.0000
     17 O3         -1.7583    0.6973   -0.5297 O.3       1 <0>         0.0000
     18 H1          1.2490   -2.8106    1.9750 H         1 <0>         0.0000
     19 H2         -1.2169   -3.1265    1.7796 H         1 <0>         0.0000
     20 H3          2.3080   -0.7872    0.9382 H         1 <0>         0.0000
     21 H4         -2.6110   -1.4333    0.5977 H         1 <0>         0.0000
     22 H5          0.5789    2.9823   -1.4509 H         1 <0>         0.0000
     23 H6          0.1215    1.5017   -2.3147 H         1 <0>         0.0000
     24 H7         -3.1212    6.9256   -2.6303 H         1 <0>         0.0000
     25 H8         -1.7706    7.0172   -1.5014 H         1 <0>         0.0000
     26 H9         -1.5159    6.3259   -3.1208 H         1 <0>         0.0000
     27 H10        -2.3229    2.8281    0.9715 H         1 <0>         0.0000
     28 H11        -0.9977    3.8580    0.4146 H         1 <0>         0.0000
     29 H12        -0.6359    2.3789    1.3173 H         1 <0>         0.0000
     30 H13        -3.2600    2.6208   -1.3209 H         1 <0>         0.0000
     31 H14        -2.2797    1.9591   -2.6419 H         1 <0>         0.0000
     32 H15        -1.2985    4.1117   -2.9376 H         1 <0>         0.0000
@<TRIPOS>BOND
     1    1    2 ar
     2    1    3 ar
     3    1   18 1
     4    2    4 ar
     5    2   19 1
     6    3    5 ar
     7    3   20 1
     8    4    6 ar
     9    4   21 1
    10    5    6 ar
    11    5    7 1
    12    6   17 1
    13    7    9 1
    14    7   15 2
    15    8   11 1
    16    8   14 am
    17    8   16 2
    18    9   10 1
    19    9   22 1
    20    9   23 1
    21   10   12 1
    22   10   13 1
    23   10   17 1
    24   11   24 1
    25   11   25 1
    26   11   26 1
    27   12   27 1
    28   12   28 1
    29   12   29 1
    30   13   14 1
    31   13   30 1
    32   13   31 1
    33   14   32 1
