@<TRIPOS>MOLECULE
*****
   32    33     0     0     0
SMALL
NO_CHARGES

@<TRIPOS>ATOM
      1 C1          0.8723   -2.2769    1.7296 C.ar      1 <0>         0.0000
      2 C2         -0.4427   -2.7740    1.7129 C.ar      1 <0>         0.0000
      3 C3          1.1380   -1.0376    1.1610 C.ar      1 <0>         0.0000
      4 C4         -1.4787   -2.0354    1.1465 C.ar      1 <0>         0.0000
      5 C5          0.1095   -0.2807    0.5716 C.ar      1 <0>         0.0000
      6 C6         -1.2070   -0.7837    0.5776 C.ar      1 <0>         0.0000
      7 C7          0.4048    1.0072   -0.0925 C.2       1 <0>         0.0000
      8 C8         -5.4095    2.3740   -0.0951 C.2       1 <0>         0.0000
      9 C9         -0.7630    1.6113   -0.8547 C.3       1 <0>         0.0000
     10 C10        -2.1047    1.3342   -0.1709 C.3       1 <0>         0.0000
     11 C11        -6.7176    1.8771    0.4964 C.3       1 <0>         0.0000
     12 C12        -2.2216    2.0458    1.1785 C.3       1 <0>         0.0000
     13 C13        -3.2577    1.7011   -1.1149 C.3       1 <0>         0.0000
     14 N1         -4.5667    1.4006   -0.5677 N.am      1 <0>         0.0000
     15 O1          1.5112    1.5338   -0.0756 O.2       1 <0>         0.0000
     16 O2         -5.1398    3.5725   -0.1585 O.2       1 <0>         0.0000
     17 O3         -2.2594   -0.1071    0.0335 O.3       1 <0>         0.0000
     18 H1          1.6708   -2.8593    2.1797 H         1 <0>         0.0000
     19 H2         -0.6608   -3.7432    2.1543 H         1 <0>         0.0000
     20 H3          2.1422   -0.6240    1.1441 H         1 <0>         0.0000
     21 H4         -2.5002   -2.4043    1.1420 H         1 <0>         0.0000
     22 H5         -0.5965    2.6844   -0.9720 H         1 <0>         0.0000
     23 H6         -0.7621    1.1597   -1.8560 H         1 <0>         0.0000
     24 H7         -6.8364    2.3072    1.4940 H         1 <0>         0.0000
     25 H8         -7.5421    2.2461   -0.1200 H         1 <0>         0.0000
     26 H9         -6.7853    0.7875    0.5627 H         1 <0>         0.0000
     27 H10        -3.1667    1.7881    1.6606 H         1 <0>         0.0000
     28 H11        -2.1960    3.1289    1.0326 H         1 <0>         0.0000
     29 H12        -1.4045    1.7666    1.8489 H         1 <0>         0.0000
     30 H13        -3.1247    1.1567   -2.0560 H         1 <0>         0.0000
     31 H14        -3.2321    2.7720   -1.3226 H         1 <0>         0.0000
     32 H15        -4.7912    0.4291   -0.4021 H         1 <0>         0.0000
@<TRIPOS>BOND
     1    1    2 ar
     2    1    3 ar
     3    1   18 1
     4    2    4 ar
     5    2   19 1
     6    3    5 ar
     7    3   20 1
     8    4    6 ar
     9    4   21 1
    10    5    6 ar
    11    5    7 1
    12    6   17 1
    13    7    9 1
    14    7   15 2
    15    8   11 1
    16    8   14 am
    17    8   16 2
    18    9   10 1
    19    9   22 1
    20    9   23 1
    21   10   12 1
    22   10   13 1
    23   10   17 1
    24   11   24 1
    25   11   25 1
    26   11   26 1
    27   12   27 1
    28   12   28 1
    29   12   29 1
    30   13   14 1
    31   13   30 1
    32   13   31 1
    33   14   32 1
