@<TRIPOS>MOLECULE
*****
   40    40     0     0     0
SMALL
NO_CHARGES

@<TRIPOS>ATOM
      1 C1          9.4530   -2.9504   -0.8660 C.2       1 <0>         0.0000
      2 C2          7.5233   -2.4513    0.3699 C.2       1 <0>         0.0000
      3 C3         10.4921   -3.4043   -1.8479 C.2       1 <0>         0.0000
      4 C4          2.5068    3.4747    0.7191 C.3       1 <0>         0.0000
      5 C5         13.7310    0.1192   -3.8849 C.3       1 <0>         0.0000
      6 C6          2.7160    2.0023    1.0890 C.3       1 <0>         0.0000
      7 C7         13.4743   -0.9400   -2.8073 C.3       1 <0>         0.0000
      8 C8          4.1080    1.4850    0.7064 C.3       1 <0>         0.0000
      9 C9         13.1514   -2.3173   -3.3967 C.3       1 <0>         0.0000
     10 C10         4.3131    0.0079    1.0697 C.3       1 <0>         0.0000
     11 C11        12.9058   -3.4005   -2.3387 C.3       1 <0>         0.0000
     12 C12         5.7032   -0.4828    0.6744 C.3       1 <0>         0.0000
     13 N1          9.7192   -2.2560    0.2131 N.2       1 <0>         0.0000
     14 N2          8.5943   -1.9705    0.9398 N.2       1 <0>         0.0000
     15 N3         11.7612   -3.1139   -1.4762 N.am      1 <0>         0.0000
     16 O1         10.1642   -3.9911   -2.8805 O.2       1 <0>         0.0000
     17 O2          4.9466   -3.0240    0.0993 O.2       1 <0>         0.0000
     18 S1          7.7730   -3.3250   -1.1130 S.3       1 <0>         0.0000
     19 S2          5.8516   -2.2857    1.0657 S.o       1 <0>         0.0000
     20 H1          3.2364    4.1176    1.2249 H         1 <0>         0.0000
     21 H2          2.6191    3.6310   -0.3599 H         1 <0>         0.0000
     22 H3          1.5065    3.8179    1.0031 H         1 <0>         0.0000
     23 H4         12.8555    0.2405   -4.5328 H         1 <0>         0.0000
     24 H5         13.9559    1.0943   -3.4403 H         1 <0>         0.0000
     25 H6         14.5777   -0.1617   -4.5217 H         1 <0>         0.0000
     26 H7          1.9543    1.3866    0.5938 H         1 <0>         0.0000
     27 H8          2.5644    1.8690    2.1680 H         1 <0>         0.0000
     28 H9         14.3547   -1.0203   -2.1548 H         1 <0>         0.0000
     29 H10        12.6440   -0.6123   -2.1693 H         1 <0>         0.0000
     30 H11         4.8735    2.0967    1.2028 H         1 <0>         0.0000
     31 H12         4.2599    1.6170   -0.3732 H         1 <0>         0.0000
     32 H13        12.2677   -2.2530   -4.0418 H         1 <0>         0.0000
     33 H14        13.9813   -2.6507   -4.0335 H         1 <0>         0.0000
     34 H15         3.5597   -0.6043    0.5622 H         1 <0>         0.0000
     35 H16         4.1654   -0.1293    2.1484 H         1 <0>         0.0000
     36 H17        13.7827   -3.5136   -1.6929 H         1 <0>         0.0000
     37 H18        12.7180   -4.3611   -2.8241 H         1 <0>         0.0000
     38 H19         6.5049    0.0193    1.2250 H         1 <0>         0.0000
     39 H20         5.8788   -0.3861   -0.4015 H         1 <0>         0.0000
     40 H21        11.8799   -2.5810   -0.6221 H         1 <0>         0.0000
@<TRIPOS>BOND
     1    1    3 1
     2    1   13 2
     3    1   18 1
     4    2   14 2
     5    2   18 1
     6    2   19 1
     7    3   15 am
     8    3   16 2
     9    4    6 1
    10    4   20 1
    11    4   21 1
    12    4   22 1
    13    5    7 1
    14    5   23 1
    15    5   24 1
    16    5   25 1
    17    6    8 1
    18    6   26 1
    19    6   27 1
    20    7    9 1
    21    7   28 1
    22    7   29 1
    23    8   10 1
    24    8   30 1
    25    8   31 1
    26    9   11 1
    27    9   32 1
    28    9   33 1
    29   10   12 1
    30   10   34 1
    31   10   35 1
    32   11   15 1
    33   11   36 1
    34   11   37 1
    35   12   19 1
    36   12   38 1
    37   12   39 1
    38   13   14 1
    39   15   40 1
    40   17   19 2
