@<TRIPOS>MOLECULE
*****
   59    60     0     0     0
SMALL
NO_CHARGES

@<TRIPOS>ATOM
      1 C1          3.4616   -1.2973   -4.2698 C.ar      1 <0>         0.0000
      2 C2          4.1707   -0.6087   -6.4743 C.ar      1 <0>         0.0000
      3 C3          4.6057   -0.7183   -3.7209 C.ar      1 <0>         0.0000
      4 C4          5.3148   -0.0296   -5.9255 C.ar      1 <0>         0.0000
      5 C5          3.2441   -1.2426   -5.6465 C.ar      1 <0>         0.0000
      6 C6          2.0529   -1.8455   -6.2179 C.ar      1 <0>         0.0000
      7 C7          0.8893   -1.0976   -6.3586 C.ar      1 <0>         0.0000
      8 C8          2.0720   -3.1746   -6.6259 C.ar      1 <0>         0.0000
      9 C9          5.5323   -0.0844   -4.5487 C.ar      1 <0>         0.0000
     10 C10        -0.2195   -1.7203   -6.9087 C.ar      1 <0>         0.0000
     11 C11         0.9103   -3.7045   -7.1639 C.ar      1 <0>         0.0000
     12 C12        -1.4759   -1.0057   -7.0891 C.2       1 <0>         0.0000
     13 C13        -2.1202   -0.7997   -8.2603 C.2       1 <0>         0.0000
     14 C14        -3.4092   -0.0232   -8.2994 C.3       1 <0>         0.0000
     15 C15        -1.6602   -1.3095   -9.5987 C.3       1 <0>         0.0000
     16 C16         1.1795    5.1878   -7.3925 C.3       1 <0>         0.0000
     17 C17         0.5897   -5.2471   -9.1314 C.3       1 <0>         0.0000
     18 C18        -0.1464   -5.9687   -6.8309 C.3       1 <0>         0.0000
     19 C19         0.8337    0.3368   -5.9296 C.3       1 <0>         0.0000
     20 C20         3.2989   -4.0162   -6.4928 C.3       1 <0>         0.0000
     21 C21         1.1183    3.7348   -7.8360 C.3       1 <0>         0.0000
     22 C22         0.9522    1.3262   -7.0929 C.3       1 <0>         0.0000
     23 C23         0.9742    2.7902   -6.6421 C.3       1 <0>         0.0000
     24 C24         0.8698   -5.1256   -7.6225 C.3       1 <0>         0.0000
     25 N1         -0.2390   -3.0091   -7.3165 N.ar      1 <0>         0.0000
     26 O1          3.1352   -4.9171   -5.4054 O.3       1 <0>         0.0000
     27 F1          6.6310    0.4716   -4.0215 F         1 <0>         0.0000
     28 H1          2.7487   -1.7878   -3.6113 H         1 <0>         0.0000
     29 H2          4.0154   -0.5576   -7.5494 H         1 <0>         0.0000
     30 H3          4.7754   -0.7608   -2.6491 H         1 <0>         0.0000
     31 H4          6.0367    0.4641   -6.5693 H         1 <0>         0.0000
     32 H5         -1.9162   -0.6181   -6.1680 H         1 <0>         0.0000
     33 H6         -3.2060    1.0426   -8.4468 H         1 <0>         0.0000
     34 H7         -4.0690   -0.3509   -9.1096 H         1 <0>         0.0000
     35 H8         -3.9538   -0.1468   -7.3575 H         1 <0>         0.0000
     36 H9         -2.0836   -2.3011   -9.7891 H         1 <0>         0.0000
     37 H10        -0.5681   -1.3924   -9.6140 H         1 <0>         0.0000
     38 H11        -1.9407   -0.6586  -10.4308 H         1 <0>         0.0000
     39 H12         2.0168    5.3535   -6.7070 H         1 <0>         0.0000
     40 H13         1.3147    5.8431   -8.2585 H         1 <0>         0.0000
     41 H14         0.2558    5.4824   -6.8843 H         1 <0>         0.0000
     42 H15        -0.3745   -4.8020   -9.4003 H         1 <0>         0.0000
     43 H16         0.5727   -6.2947   -9.4512 H         1 <0>         0.0000
     44 H17         1.3669   -4.7332   -9.7080 H         1 <0>         0.0000
     45 H18        -1.1563   -5.5597   -6.9464 H         1 <0>         0.0000
     46 H19         0.0907   -5.9789   -5.7614 H         1 <0>         0.0000
     47 H20        -0.1653   -7.0080   -7.1767 H         1 <0>         0.0000
     48 H21        -0.0906    0.5243   -5.3691 H         1 <0>         0.0000
     49 H22         1.6573    0.5128   -5.2255 H         1 <0>         0.0000
     50 H23         3.4854   -4.5961   -7.4061 H         1 <0>         0.0000
     51 H24         4.1852   -3.3952   -6.3085 H         1 <0>         0.0000
     52 H25         0.2716    3.6025   -8.5196 H         1 <0>         0.0000
     53 H26         2.0288    3.4917   -8.3960 H         1 <0>         0.0000
     54 H27         0.1342    1.1743   -7.8079 H         1 <0>         0.0000
     55 H28         1.8841    1.1084   -7.6297 H         1 <0>         0.0000
     56 H29         0.0507    3.0317   -6.1037 H         1 <0>         0.0000
     57 H30         1.8074    2.9485   -5.9468 H         1 <0>         0.0000
     58 H31         1.8551   -5.5993   -7.4557 H         1 <0>         0.0000
     59 H32         3.9495   -5.4430   -5.3528 H         1 <0>         0.0000
@<TRIPOS>BOND
     1    1    3 ar
     2    1    5 ar
     3    1   28 1
     4    2    4 ar
     5    2    5 ar
     6    2   29 1
     7    3    9 ar
     8    3   30 1
     9    4    9 ar
    10    4   31 1
    11    5    6 1
    12    6    7 ar
    13    6    8 ar
    14    7   10 ar
    15    7   19 1
    16    8   11 ar
    17    8   20 1
    18    9   27 1
    19   10   12 1
    20   10   25 ar
    21   11   24 1
    22   11   25 ar
    23   12   13 2
    24   12   32 1
    25   13   14 1
    26   13   15 1
    27   14   33 1
    28   14   34 1
    29   14   35 1
    30   15   36 1
    31   15   37 1
    32   15   38 1
    33   16   21 1
    34   16   39 1
    35   16   40 1
    36   16   41 1
    37   17   24 1
    38   17   42 1
    39   17   43 1
    40   17   44 1
    41   18   24 1
    42   18   45 1
    43   18   46 1
    44   18   47 1
    45   19   22 1
    46   19   48 1
    47   19   49 1
    48   20   26 1
    49   20   50 1
    50   20   51 1
    51   21   23 1
    52   21   52 1
    53   21   53 1
    54   22   23 1
    55   22   54 1
    56   22   55 1
    57   23   56 1
    58   23   57 1
    59   24   58 1
    60   26   59 1
