@<TRIPOS>MOLECULE
*****
   22    23     0     0     0
SMALL
NO_CHARGES

@<TRIPOS>ATOM
      1 C1          1.8673    2.4175    0.0251 C.ar      1 <0>         0.0000
      2 C2          2.6835    1.4018    0.5241 C.ar      1 <0>         0.0000
      3 C3          0.5770    2.1280   -0.4266 C.ar      1 <0>         0.0000
      4 C4          2.2090    0.0932    0.5845 C.ar      1 <0>         0.0000
      5 C5          0.1006    0.8155   -0.3710 C.ar      1 <0>         0.0000
      6 C6          0.9152   -0.1877    0.1502 C.ar      1 <0>         0.0000
      7 C7         -1.2376    0.4225   -0.8885 C.2       1 <0>         0.0000
      8 C8         -3.1790    0.9169   -2.2716 C.3       1 <0>         0.0000
      9 N1         -1.7843   -0.7146   -0.5520 N.2       1 <0>         0.0000
     10 N2         -1.8896    1.2664   -1.7567 N.pl3     1 <0>         0.0000
     11 O1         -1.4041   -1.3125    1.8673 O.2       1 <0>         0.0000
     12 O2         -1.4033   -3.1062    0.1070 O.2       1 <0>         0.0000
     13 O3          0.4763   -1.4804    0.2245 O.3       1 <0>         0.0000
     14 S1         -1.1100   -1.7435    0.5122 S.o2      1 <0>         0.0000
     15 H1          2.2346    3.4394   -0.0073 H         1 <0>         0.0000
     16 H2          3.6894    1.6310    0.8636 H         1 <0>         0.0000
     17 H3         -0.0270    2.9414   -0.8162 H         1 <0>         0.0000
     18 H4          2.8514   -0.6980    0.9600 H         1 <0>         0.0000
     19 H5         -3.0597    0.3500   -3.2067 H         1 <0>         0.0000
     20 H6         -3.7132    0.2995   -1.5344 H         1 <0>         0.0000
     21 H7         -3.7553    1.8328   -2.4692 H         1 <0>         0.0000
     22 H8         -1.4196    2.1026   -1.9902 H         1 <0>         0.0000
@<TRIPOS>BOND
     1    1    2 ar
     2    1    3 ar
     3    1   15 1
     4    2    4 ar
     5    2   16 1
     6    3    5 ar
     7    3   17 1
     8    4    6 ar
     9    4   18 1
    10    5    6 ar
    11    5    7 1
    12    6   13 1
    13    7    9 2
    14    7   10 1
    15    8   10 1
    16    8   19 1
    17    8   20 1
    18    8   21 1
    19    9   14 1
    20   10   22 1
    21   11   14 2
    22   12   14 2
    23   13   14 1
