@<TRIPOS>MOLECULE
*****
   41    43     0     0     0
SMALL
NO_CHARGES

@<TRIPOS>ATOM
      1 C1         -2.7785   -0.1938    1.4084 C.ar      1 <0>         0.0000
      2 C2         -1.7190   -1.4764    3.1545 C.ar      1 <0>         0.0000
      3 C3         -4.0161   -0.7325    1.7490 C.ar      1 <0>         0.0000
      4 C4         -2.9537   -2.0254    3.5082 C.ar      1 <0>         0.0000
      5 C5         -2.0424    1.6506    5.4360 C.2       1 <0>         0.0000
      6 C6         -0.0978    1.0746    4.8742 C.2       1 <0>         0.0000
      7 C7         -1.6201   -0.5635    2.1006 C.ar      1 <0>         0.0000
      8 C8         -4.0939   -1.6466    2.8014 C.ar      1 <0>         0.0000
      9 C9          1.2555    0.9691   -0.1808 C.3       1 <0>         0.0000
     10 C10        -0.1362    1.3548   -0.6055 C.3       1 <0>         0.0000
     11 C11         0.0625    0.1529    0.2928 C.3       1 <0>         0.0000
     12 C12         0.2272   -4.0816   -0.4262 C.3       1 <0>         0.0000
     13 C13        -0.3556    1.5598    2.3901 C.3       1 <0>         0.0000
     14 C14         0.3934   -2.7774    0.3531 C.3       1 <0>         0.0000
     15 C15        -0.2947    0.1203    1.7893 C.3       1 <0>         0.0000
     16 N1         -0.8800    1.1370    5.9421 N.2       1 <0>         0.0000
     17 N2         -2.0213    1.9095    4.1350 N.2       1 <0>         0.0000
     18 N3         -0.7542    1.5395    3.7822 N.pl3     1 <0>         0.0000
     19 O1          0.7224   -1.2949   -1.8397 O.2       1 <0>         0.0000
     20 O2         -1.6267   -1.5693   -0.9219 O.2       1 <0>         0.0000
     21 O3          0.7415   -0.6015    2.4796 O.3       1 <0>         0.0000
     22 S1         -0.1862   -1.3988   -0.6787 S.o2      1 <0>         0.0000
     23 Cl1        -5.6514   -2.3280    3.2408 Cl        1 <0>         0.0000
     24 H1         -2.7247    0.5035    0.5791 H         1 <0>         0.0000
     25 H2         -0.8323   -1.7576    3.7105 H         1 <0>         0.0000
     26 H3         -4.9094   -0.4528    1.2005 H         1 <0>         0.0000
     27 H4         -3.0280   -2.7303    4.3300 H         1 <0>         0.0000
     28 H5         -2.9210    1.8421    6.0382 H         1 <0>         0.0000
     29 H6          0.9164    0.7027    4.8393 H         1 <0>         0.0000
     30 H7          1.8900    0.5169   -0.9350 H         1 <0>         0.0000
     31 H8          1.7640    1.5957    0.5466 H         1 <0>         0.0000
     32 H9         -0.5920    2.2407   -0.1789 H         1 <0>         0.0000
     33 H10        -0.4117    1.1580   -1.6367 H         1 <0>         0.0000
     34 H11        -0.8223   -4.2559   -0.6740 H         1 <0>         0.0000
     35 H12         0.8111   -4.0697   -1.3495 H         1 <0>         0.0000
     36 H13         0.5776   -4.9103    0.1961 H         1 <0>         0.0000
     37 H14         0.6187    2.0497    2.3062 H         1 <0>         0.0000
     38 H15        -1.1012    2.1652    1.8785 H         1 <0>         0.0000
     39 H16         1.4372   -2.5651    0.5938 H         1 <0>         0.0000
     40 H17        -0.2000   -2.7602    1.2665 H         1 <0>         0.0000
     41 H18         1.5912   -0.2893    2.1273 H         1 <0>         0.0000
@<TRIPOS>BOND
     1    1    3 ar
     2    1    7 ar
     3    1   24 1
     4    2    4 ar
     5    2    7 ar
     6    2   25 1
     7    3    8 ar
     8    3   26 1
     9    4    8 ar
    10    4   27 1
    11    5   16 1
    12    5   17 2
    13    5   28 1
    14    6   16 2
    15    6   18 1
    16    6   29 1
    17    7   15 1
    18    8   23 1
    19    9   10 1
    20    9   11 1
    21    9   30 1
    22    9   31 1
    23   10   11 1
    24   10   32 1
    25   10   33 1
    26   11   15 1
    27   11   22 1
    28   12   14 1
    29   12   34 1
    30   12   35 1
    31   12   36 1
    32   13   15 1
    33   13   18 1
    34   13   37 1
    35   13   38 1
    36   14   22 1
    37   14   39 1
    38   14   40 1
    39   15   21 1
    40   17   18 1
    41   19   22 2
    42   20   22 2
    43   21   41 1
