@<TRIPOS>MOLECULE
*****
   49    51     0     0     0
SMALL
NO_CHARGES

@<TRIPOS>ATOM
      1 C1         -2.3809    1.6213    2.0136 C.ar      1 <0>         0.0000
      2 C2          3.7803   -1.2676    1.3174 C.ar      1 <0>         0.0000
      3 C3         -1.0380    1.6722    1.6407 C.ar      1 <0>         0.0000
      4 C4          3.0710   -0.0972    1.0355 C.ar      1 <0>         0.0000
      5 C5         -2.9354    0.6973   -0.1355 C.ar      1 <0>         0.0000
      6 C6          1.4868   -1.4036   -0.2783 C.ar      1 <0>         0.0000
      7 C7         -1.6002    0.7436   -0.5390 C.ar      1 <0>         0.0000
      8 C8         -3.3524    1.1396    1.1277 C.ar      1 <0>         0.0000
      9 C9          3.3876   -2.5014    0.8054 C.ar      1 <0>         0.0000
     10 C10         2.2330   -2.5667   -0.0022 C.ar      1 <0>         0.0000
     11 C11         1.9393   -0.1632    0.2310 C.ar      1 <0>         0.0000
     12 C12        -0.6463    1.2395    0.3712 C.ar      1 <0>         0.0000
     13 C13         0.1518   -1.4559   -0.9341 C.2       1 <0>         0.0000
     14 C14        -1.2244    0.2187   -1.9060 C.3       1 <0>         0.0000
     15 C15        -4.8111    1.1005    1.5130 C.3       1 <0>         0.0000
     16 C16         5.0834   -3.8152   -1.2930 C.3       1 <0>         0.0000
     17 C17         6.2499   -5.1222    0.5282 C.3       1 <0>         0.0000
     18 C18         1.3804   -3.9815   -1.7917 C.3       1 <0>         0.0000
     19 C19         4.2139   -3.7425    1.1043 C.3       1 <0>         0.0000
     20 C20         5.4547   -3.8527    0.1953 C.3       1 <0>         0.0000
     21 O1         -0.7488   -2.2234   -0.6612 O.2       1 <0>         0.0000
     22 O2          1.2572    1.9432   -1.4005 O.2       1 <0>         0.0000
     23 O3          1.6532    2.3106    1.0680 O.2       1 <0>         0.0000
     24 O4          0.0519   -0.4440   -1.8303 O.3       1 <0>         0.0000
     25 O5          4.6978   -3.7064    2.4571 O.3       1 <0>         0.0000
     26 O6          1.9170   -3.8057   -0.4727 O.3       1 <0>         0.0000
     27 S1          1.1152    1.4725   -0.0180 S.o2      1 <0>         0.0000
     28 H1         -2.6721    1.9598    3.0049 H         1 <0>         0.0000
     29 H2          4.6629   -1.2276    1.9489 H         1 <0>         0.0000
     30 H3         -0.2871    2.0620    2.3193 H         1 <0>         0.0000
     31 H4          3.3787    0.8553    1.4507 H         1 <0>         0.0000
     32 H5         -3.6708    0.2817   -0.8214 H         1 <0>         0.0000
     33 H6         -1.9912   -0.4614   -2.2830 H         1 <0>         0.0000
     34 H7         -1.0573    1.0294   -2.6169 H         1 <0>         0.0000
     35 H8         -5.3312    1.9919    1.1425 H         1 <0>         0.0000
     36 H9         -5.3131    0.2270    1.0868 H         1 <0>         0.0000
     37 H10        -4.9369    1.0720    2.5986 H         1 <0>         0.0000
     38 H11         4.4247   -4.6507   -1.5546 H         1 <0>         0.0000
     39 H12         4.5791   -2.8846   -1.5696 H         1 <0>         0.0000
     40 H13         5.9862   -3.8985   -1.9066 H         1 <0>         0.0000
     41 H14         5.6574   -6.0188    0.3069 H         1 <0>         0.0000
     42 H15         7.1631   -5.1705   -0.0749 H         1 <0>         0.0000
     43 H16         6.5292   -5.1501    1.5834 H         1 <0>         0.0000
     44 H17         1.8188   -4.9063   -2.1732 H         1 <0>         0.0000
     45 H18         1.6657   -3.1505   -2.4450 H         1 <0>         0.0000
     46 H19         0.2933   -4.0683   -1.7531 H         1 <0>         0.0000
     47 H20         3.5923   -4.6322    0.9536 H         1 <0>         0.0000
     48 H21         6.0810   -2.9788    0.4193 H         1 <0>         0.0000
     49 H22         3.9282   -3.7127    3.0480 H         1 <0>         0.0000
@<TRIPOS>BOND
     1    1    3 ar
     2    1    8 ar
     3    1   28 1
     4    2    4 ar
     5    2    9 ar
     6    2   29 1
     7    3   12 ar
     8    3   30 1
     9    4   11 ar
    10    4   31 1
    11    5    7 ar
    12    5    8 ar
    13    5   32 1
    14    6   10 ar
    15    6   11 ar
    16    6   13 1
    17    7   12 ar
    18    7   14 1
    19    8   15 1
    20    9   10 ar
    21    9   19 1
    22   10   26 1
    23   11   27 1
    24   12   27 1
    25   13   21 2
    26   13   24 1
    27   14   24 1
    28   14   33 1
    29   14   34 1
    30   15   35 1
    31   15   36 1
    32   15   37 1
    33   16   20 1
    34   16   38 1
    35   16   39 1
    36   16   40 1
    37   17   20 1
    38   17   41 1
    39   17   42 1
    40   17   43 1
    41   18   26 1
    42   18   44 1
    43   18   45 1
    44   18   46 1
    45   19   20 1
    46   19   25 1
    47   19   47 1
    48   20   48 1
    49   22   27 2
    50   23   27 2
    51   25   49 1
