@<TRIPOS>MOLECULE
*****
   47    49     0     0     0
SMALL
NO_CHARGES

@<TRIPOS>ATOM
      1 C1          0.7935    1.3565   -4.5150 C.ar      1 <0>         0.0000
      2 C2          0.3299    0.8133   -3.3190 C.ar      1 <0>         0.0000
      3 C3          2.2911    1.6620   -2.1194 C.ar      1 <0>         0.0000
      4 C4          2.0086    2.0424   -4.4923 C.ar      1 <0>         0.0000
      5 C5          2.7466    2.1900   -3.3233 C.ar      1 <0>         0.0000
      6 C6          1.0725    0.9758   -2.1367 C.ar      1 <0>         0.0000
      7 C7          2.7355    2.7051   -5.6001 C.2       1 <0>         0.0000
      8 C8          1.3467   -0.5008   -0.1643 C.2       1 <0>         0.0000
      9 C9         -0.6687    0.6384   -0.3381 C.2       1 <0>         0.0000
     10 C10         3.9930    2.9651   -3.6580 C.3       1 <0>         0.0000
     11 C11         0.4783   -0.9042    1.0283 C.3       1 <0>         0.0000
     12 C12         1.1748   -0.4625    2.3263 C.3       1 <0>         0.0000
     13 C13         0.2389   -2.4205    1.0055 C.3       1 <0>         0.0000
     14 C14        -4.2979   -0.9831    1.9803 C.3       1 <0>         0.0000
     15 C15        -3.0423   -1.0658    1.1068 C.3       1 <0>         0.0000
     16 C16        -5.4223   -1.8965    1.4801 C.3       1 <0>         0.0000
     17 C17        -1.9206   -0.1661    1.6382 C.3       1 <0>         0.0000
     18 C18        -6.6842   -1.7879    2.3244 C.3       1 <0>         0.0000
     19 N1          0.5979    0.3916   -0.9238 N.am      1 <0>         0.0000
     20 N2         -0.7465   -0.1350    0.7708 N.pl3     1 <0>         0.0000
     21 O1          2.4441    2.8077   -6.7684 O.2       1 <0>         0.0000
     22 O2          2.4781   -0.8844   -0.3947 O.2       1 <0>         0.0000
     23 O3          3.8954    3.2375   -5.0722 O.3       1 <0>         0.0000
     24 O4         -7.6541   -2.6966    1.7908 O.3       1 <0>         0.0000
     25 S1         -1.8040    1.7069   -0.9064 S.2       1 <0>         0.0000
     26 H1          0.2362    1.2486   -5.4406 H         1 <0>         0.0000
     27 H2         -0.6077    0.2707   -3.2846 H         1 <0>         0.0000
     28 H3          2.8509    1.7602   -1.1950 H         1 <0>         0.0000
     29 H4          4.0593    3.9208   -3.1281 H         1 <0>         0.0000
     30 H5          4.9103    2.3945   -3.4800 H         1 <0>         0.0000
     31 H6          0.5959   -0.7693    3.2019 H         1 <0>         0.0000
     32 H7          1.2980    0.6240    2.3518 H         1 <0>         0.0000
     33 H8          2.1608   -0.9302    2.3821 H         1 <0>         0.0000
     34 H9         -0.3695   -2.7242    1.8623 H         1 <0>         0.0000
     35 H10         1.1998   -2.9385    1.0578 H         1 <0>         0.0000
     36 H11        -0.2731   -2.7226    0.0880 H         1 <0>         0.0000
     37 H12        -4.0450   -1.2460    3.0173 H         1 <0>         0.0000
     38 H13        -4.6496    0.0570    2.0018 H         1 <0>         0.0000
     39 H14        -3.2822   -0.7542    0.0855 H         1 <0>         0.0000
     40 H15        -2.6900   -2.1024    1.0550 H         1 <0>         0.0000
     41 H16        -5.6736   -1.6480    0.4423 H         1 <0>         0.0000
     42 H17        -5.0894   -2.9415    1.4843 H         1 <0>         0.0000
     43 H18        -2.2853    0.8597    1.7421 H         1 <0>         0.0000
     44 H19        -1.5939   -0.5036    2.6257 H         1 <0>         0.0000
     45 H20        -7.0631   -0.7547    2.2984 H         1 <0>         0.0000
     46 H21        -6.4566   -2.0355    3.3730 H         1 <0>         0.0000
     47 H22        -8.4702   -2.6094    2.3068 H         1 <0>         0.0000
@<TRIPOS>BOND
     1    1    2 ar
     2    1    4 ar
     3    1   26 1
     4    2    6 ar
     5    2   27 1
     6    3    5 ar
     7    3    6 ar
     8    3   28 1
     9    4    5 ar
    10    4    7 1
    11    5   10 1
    12    6   19 1
    13    7   21 2
    14    7   23 1
    15    8   11 1
    16    8   19 am
    17    8   22 2
    18    9   19 1
    19    9   20 1
    20    9   25 2
    21   10   23 1
    22   10   29 1
    23   10   30 1
    24   11   12 1
    25   11   13 1
    26   11   20 1
    27   12   31 1
    28   12   32 1
    29   12   33 1
    30   13   34 1
    31   13   35 1
    32   13   36 1
    33   14   15 1
    34   14   16 1
    35   14   37 1
    36   14   38 1
    37   15   17 1
    38   15   39 1
    39   15   40 1
    40   16   18 1
    41   16   41 1
    42   16   42 1
    43   17   20 1
    44   17   43 1
    45   17   44 1
    46   18   24 1
    47   18   45 1
    48   18   46 1
    49   24   47 1
