@<TRIPOS>MOLECULE
*****
   15    14     0     0     0
SMALL
NO_CHARGES

@<TRIPOS>ATOM
      1 C1         -0.0712   -0.3292   -0.0840 C.2       1 <0>         0.0000
      2 C2          0.1651    0.4513    2.3119 C.3       1 <0>         0.0000
      3 C3          0.1819    0.8464    0.8463 C.3       1 <0>         0.0000
      4 C4         -0.0360    0.0002   -1.5587 C.3       1 <0>         0.0000
      5 N1         -0.3560   -1.2108   -2.3280 N.pl3     1 <0>         0.0000
      6 O1         -1.5527   -1.4237   -2.5966 O.3       1 <0>         0.0000
      7 O2         -0.2896   -1.4620    0.3433 O.2       1 <0>         0.0000
      8 O3          0.5867   -1.9437   -2.6797 O.2       1 <0>         0.0000
      9 H1          0.9301   -0.3028    2.5245 H         1 <0>         0.0000
     10 H2         -0.8062    0.0326    2.5956 H         1 <0>         0.0000
     11 H3          0.3595    1.3231    2.9440 H         1 <0>         0.0000
     12 H4         -0.5909    1.5997    0.6616 H         1 <0>         0.0000
     13 H5          1.1574    1.2758    0.5951 H         1 <0>         0.0000
     14 H6         -0.7929    0.7446   -1.8102 H         1 <0>         0.0000
     15 H7          0.9632    0.3144   -1.8646 H         1 <0>         0.0000
@<TRIPOS>BOND
     1    1    3 1
     2    1    4 1
     3    1    7 2
     4    2    3 1
     5    2    9 1
     6    2   10 1
     7    2   11 1
     8    3   12 1
     9    3   13 1
    10    4    5 1
    11    4   14 1
    12    4   15 1
    13    5    6 1
    14    5    8 2
