@<TRIPOS>MOLECULE
*****
   33    33     0     0     0
SMALL
NO_CHARGES

@<TRIPOS>ATOM
      1 C1         -1.2559   -0.6057    0.1962 C.2       1 <0>         0.0000
      2 C2          1.5512    0.9664   -0.6122 C.3       1 <0>         0.0000
      3 C3          1.7050   -0.4985   -1.0393 C.3       1 <0>         0.0000
      4 C4          0.1084    1.4636   -0.4483 C.3       1 <0>         0.0000
      5 C5          1.1035   -1.5066   -0.0512 C.3       1 <0>         0.0000
      6 C6         -0.6801    0.7287    0.6482 C.3       1 <0>         0.0000
      7 C7         -4.9529    1.8114    5.6578 C.3       1 <0>         0.0000
      8 C8         -3.8967    1.0387    4.8599 C.3       1 <0>         0.0000
      9 C9         -3.5529    1.7182    3.5275 C.3       1 <0>         0.0000
     10 C10        -2.5025    0.9365    2.7415 C.3       1 <0>         0.0000
     11 N1         -0.3580   -1.5913   -0.0876 N.am      1 <0>         0.0000
     12 O1         -2.4713   -0.7870    0.0812 O.2       1 <0>         0.0000
     13 O2         -1.3597    3.1210    1.6666 O.2       1 <0>         0.0000
     14 S1         -2.0742    1.8551    1.2010 S.o       1 <0>         0.0000
     15 H1          2.0834    1.1188    0.3364 H         1 <0>         0.0000
     16 H2          2.0525    1.6045   -1.3489 H         1 <0>         0.0000
     17 H3          1.2514   -0.6593   -2.0250 H         1 <0>         0.0000
     18 H4          2.7739   -0.7229   -1.1397 H         1 <0>         0.0000
     19 H5          0.1393    2.5218   -0.1692 H         1 <0>         0.0000
     20 H6         -0.4351    1.3900   -1.3979 H         1 <0>         0.0000
     21 H7          1.4716   -2.5099   -0.2795 H         1 <0>         0.0000
     22 H8          1.4388   -1.2767    0.9686 H         1 <0>         0.0000
     23 H9         -0.0413    0.6061    1.5317 H         1 <0>         0.0000
     24 H10        -5.8880    1.8991    5.0930 H         1 <0>         0.0000
     25 H11        -5.1802    1.3114    6.6053 H         1 <0>         0.0000
     26 H12        -4.6084    2.8258    5.8881 H         1 <0>         0.0000
     27 H13        -2.9833    0.9398    5.4607 H         1 <0>         0.0000
     28 H14        -4.2530    0.0181    4.6692 H         1 <0>         0.0000
     29 H15        -4.4632    1.8175    2.9226 H         1 <0>         0.0000
     30 H16        -3.1805    2.7315    3.7139 H         1 <0>         0.0000
     31 H17        -1.5729    0.8404    3.3139 H         1 <0>         0.0000
     32 H18        -2.8642   -0.0492    2.4401 H         1 <0>         0.0000
     33 H19        -0.7866   -2.4463   -0.4241 H         1 <0>         0.0000
@<TRIPOS>BOND
     1    1    6 1
     2    1   11 am
     3    1   12 2
     4    2    3 1
     5    2    4 1
     6    2   15 1
     7    2   16 1
     8    3    5 1
     9    3   17 1
    10    3   18 1
    11    4    6 1
    12    4   19 1
    13    4   20 1
    14    5   11 1
    15    5   21 1
    16    5   22 1
    17    6   14 1
    18    6   23 1
    19    7    8 1
    20    7   24 1
    21    7   25 1
    22    7   26 1
    23    8    9 1
    24    8   27 1
    25    8   28 1
    26    9   10 1
    27    9   29 1
    28    9   30 1
    29   10   14 1
    30   10   31 1
    31   10   32 1
    32   11   33 1
    33   13   14 2
