@<TRIPOS>MOLECULE
*****
   34    34     0     0     0
SMALL
NO_CHARGES

@<TRIPOS>ATOM
      1 C1          2.3411   -1.1609   -0.4398 C.2       1 <0>         0.0000
      2 C2          1.3125   -1.7981    0.1394 C.2       1 <0>         0.0000
      3 C3          0.0690   -1.0460    0.3286 C.2       1 <0>         0.0000
      4 C4         -1.0507    1.8705    1.9999 C.2       1 <0>         0.0000
      5 C5          1.3639   -3.2146    0.6223 C.3       1 <0>         0.0000
      6 C6          2.7917   -3.7560    0.7127 C.3       1 <0>         0.0000
      7 C7          3.6110   -3.3553   -0.5136 C.3       1 <0>         0.0000
      8 C8          3.6838   -1.8179   -0.7031 C.3       1 <0>         0.0000
      9 C9         -1.1758   -1.5871   -0.3501 C.3       1 <0>         0.0000
     10 C10         4.7189   -1.2086    0.2601 C.3       1 <0>         0.0000
     11 C11         4.1215   -1.5212   -2.1483 C.3       1 <0>         0.0000
     12 N1          0.0922    0.0376    1.0611 N.2       1 <0>         0.0000
     13 N2         -2.3012    2.4562    2.0743 N.am      1 <0>         0.0000
     14 N3         -1.0606    0.7211    1.2265 N.am      1 <0>         0.0000
     15 O1         -0.0605    2.3349    2.5629 O.2       1 <0>         0.0000
     16 H1          2.2334   -0.1245   -0.7541 H         1 <0>         0.0000
     17 H2          0.8932   -3.2630    1.6122 H         1 <0>         0.0000
     18 H3          0.7831   -3.8655   -0.0417 H         1 <0>         0.0000
     19 H4          3.2705   -3.3737    1.6217 H         1 <0>         0.0000
     20 H5          2.7689   -4.8483    0.8075 H         1 <0>         0.0000
     21 H6          4.6236   -3.7662   -0.3974 H         1 <0>         0.0000
     22 H7          3.1885   -3.8302   -1.4080 H         1 <0>         0.0000
     23 H8         -1.7063   -2.2832    0.3056 H         1 <0>         0.0000
     24 H9         -0.8995   -2.1219   -1.2634 H         1 <0>         0.0000
     25 H10        -1.8540   -0.7646   -0.5950 H         1 <0>         0.0000
     26 H11         5.6855   -1.6687    0.0840 H         1 <0>         0.0000
     27 H12         4.4073   -1.3926    1.2829 H         1 <0>         0.0000
     28 H13         4.7851   -0.1400    0.0845 H         1 <0>         0.0000
     29 H14         5.0811   -1.9915   -2.3345 H         1 <0>         0.0000
     30 H15         4.2077   -0.4482   -2.2820 H         1 <0>         0.0000
     31 H16         3.3803   -1.9174   -2.8342 H         1 <0>         0.0000
     32 H17        -2.4528    3.3069    2.6059 H         1 <0>         0.0000
     33 H18        -3.1045    2.0562    1.6012 H         1 <0>         0.0000
     34 H19        -1.9175    0.3991    0.7928 H         1 <0>         0.0000
@<TRIPOS>BOND
     1    1    2 2
     2    1    8 1
     3    1   16 1
     4    2    3 1
     5    2    5 1
     6    3    9 1
     7    3   12 2
     8    4   13 am
     9    4   14 am
    10    4   15 2
    11    5    6 1
    12    5   17 1
    13    5   18 1
    14    6    7 1
    15    6   19 1
    16    6   20 1
    17    7    8 1
    18    7   21 1
    19    7   22 1
    20    8   10 1
    21    8   11 1
    22    9   23 1
    23    9   24 1
    24    9   25 1
    25   10   26 1
    26   10   27 1
    27   10   28 1
    28   11   29 1
    29   11   30 1
    30   11   31 1
    31   12   14 1
    32   13   32 1
    33   13   33 1
    34   14   34 1
