@<TRIPOS>MOLECULE
*****
   30    30     0     0     0
SMALL
NO_CHARGES

@<TRIPOS>ATOM
      1 C1          5.4612   -1.9758   -1.3870 C.ar      1 <0>         0.0000
      2 C2          5.4356   -2.3989   -0.0544 C.ar      1 <0>         0.0000
      3 C3          4.5755   -0.9782   -1.8123 C.ar      1 <0>         0.0000
      4 C4          4.5390   -1.8125    0.8474 C.ar      1 <0>         0.0000
      5 C5          3.6833   -0.3939   -0.9098 C.ar      1 <0>         0.0000
      6 C6          3.6681   -0.7938    0.4335 C.ar      1 <0>         0.0000
      7 C7          2.6334    3.1044    0.6199 C.2       1 <0>         0.0000
      8 C8          3.0529    4.2272   -0.3068 C.3       1 <0>         0.0000
      9 C9          4.7576    0.9690    2.7145 C.3       1 <0>         0.0000
     10 C10         2.7678   -0.0924    1.4327 C.3       1 <0>         0.0000
     11 C11         3.4091    1.2010    2.0072 C.3       1 <0>         0.0000
     12 N1          3.6101    2.2444    1.0077 N.am      1 <0>         0.0000
     13 O1          1.4595    2.9871    1.0023 O.2       1 <0>         0.0000
     14 O2          5.8670    0.9353    1.8151 O.3       1 <0>         0.0000
     15 O3          1.5047    0.1700    0.8412 O.3       1 <0>         0.0000
     16 H1          6.1537   -2.4295   -2.0911 H         1 <0>         0.0000
     17 H2          6.1027   -3.1886    0.2815 H         1 <0>         0.0000
     18 H3          4.5783   -0.6599   -2.8518 H         1 <0>         0.0000
     19 H4          4.5111   -2.1609    1.8784 H         1 <0>         0.0000
     20 H5          2.9768    0.3616   -1.2374 H         1 <0>         0.0000
     21 H6          2.4175    4.2060   -1.1957 H         1 <0>         0.0000
     22 H7          2.8767    5.1803    0.1998 H         1 <0>         0.0000
     23 H8          4.1020    4.1723   -0.6086 H         1 <0>         0.0000
     24 H9          4.7070    0.0562    3.3214 H         1 <0>         0.0000
     25 H10         4.9563    1.8083    3.3851 H         1 <0>         0.0000
     26 H11         2.6284   -0.7600    2.2976 H         1 <0>         0.0000
     27 H12         2.7000    1.5885    2.7483 H         1 <0>         0.0000
     28 H13         4.5564    2.3449    0.6578 H         1 <0>         0.0000
     29 H14         5.8223    0.1050    1.3089 H         1 <0>         0.0000
     30 H15         1.2406    1.0951    1.0286 H         1 <0>         0.0000
@<TRIPOS>BOND
     1    1    3 ar
     2    1    2 ar
     3    1   16 1
     4    2    4 ar
     5    2   17 1
     6    3    5 ar
     7    3   18 1
     8    4    6 ar
     9    4   19 1
    10    5    6 ar
    11    5   20 1
    12    6   10 1
    13    7    8 1
    14    7   12 am
    15    7   13 2
    16    8   21 1
    17    8   22 1
    18    8   23 1
    19    9   11 1
    20    9   14 1
    21    9   24 1
    22    9   25 1
    23   10   11 1
    24   10   15 1
    25   10   26 1
    26   11   12 1
    27   11   27 1
    28   12   28 1
    29   14   29 1
    30   15   30 1
