@<TRIPOS>MOLECULE
*****
   21    22     0     0     0
SMALL
NO_CHARGES

@<TRIPOS>ATOM
      1 C1          1.8851   -1.0363   -0.1124 C.ar      1 <0>         0.0000
      2 C2          0.8066   -0.4630    0.5610 C.ar      1 <0>         0.0000
      3 C3          1.7997   -1.0786    2.6757 C.ar      1 <0>         0.0000
      4 C4          2.8783   -1.6520    2.0022 C.ar      1 <0>         0.0000
      5 C5          2.9210   -1.6309    0.6081 C.ar      1 <0>         0.0000
      6 C6          0.7638   -0.4841    1.9551 C.ar      1 <0>         0.0000
      7 C7          3.9564   -2.2712    2.7571 C.2       1 <0>         0.0000
      8 C8          3.9690   -4.3106    4.3124 C.3       1 <0>         0.0000
      9 C9          2.5359   -3.9124    4.1254 C.3       1 <0>         0.0000
     10 C10         3.6112   -2.8842    4.0831 C.3       1 <0>         0.0000
     11 O1          5.1327   -2.3266    2.3926 O.2       1 <0>         0.0000
     12 F1          3.9529   -2.1785   -0.0499 F         1 <0>         0.0000
     13 Br1        -0.6980    0.2930    2.8668 Br        1 <0>         0.0000
     14 H1          1.9184   -1.0198   -1.1977 H         1 <0>         0.0000
     15 H2          0.0078   -0.0044   -0.0157 H         1 <0>         0.0000
     16 H3          1.7714   -1.0983    3.7631 H         1 <0>         0.0000
     17 H4          4.2920   -4.5787    5.3110 H         1 <0>         0.0000
     18 H5          4.4390   -4.8825    3.5216 H         1 <0>         0.0000
     19 H6          2.0447   -4.2149    3.2086 H         1 <0>         0.0000
     20 H7          1.8942   -3.9120    4.9981 H         1 <0>         0.0000
     21 H8          3.6980   -2.1931    4.8969 H         1 <0>         0.0000
@<TRIPOS>BOND
     1    1    2 ar
     2    1    5 ar
     3    1   14 1
     4    2    6 ar
     5    2   15 1
     6    3    4 ar
     7    3    6 ar
     8    3   16 1
     9    4    5 ar
    10    4    7 1
    11    5   12 1
    12    6   13 1
    13    7   10 1
    14    7   11 2
    15    8    9 1
    16    8   10 1
    17    8   17 1
    18    8   18 1
    19    9   10 1
    20    9   19 1
    21    9   20 1
    22   10   21 1
