@<TRIPOS>MOLECULE
*****
   27    28     0     0     0
SMALL
NO_CHARGES

@<TRIPOS>ATOM
      1 C1          3.2755   -0.2327    1.2178 C.ar      1 <0>         0.0000
      2 C2          1.8349   -1.9752    0.3747 C.ar      1 <0>         0.0000
      3 C3          2.1856    0.3792    1.8460 C.ar      1 <0>         0.0000
      4 C4          0.7367   -1.3760    0.9923 C.ar      1 <0>         0.0000
      5 C5          3.3821   -2.6837   -3.6369 C.2       1 <0>         0.0000
      6 C6          3.1152   -1.4128    0.4834 C.ar      1 <0>         0.0000
      7 C7          0.9227   -0.2009    1.7263 C.ar      1 <0>         0.0000
      8 C8          3.4822   -3.9752   -3.0496 C.2       1 <0>         0.0000
      9 C9          3.7046   -1.8010   -2.6136 C.2       1 <0>         0.0000
     10 C10         3.2420   -5.3058   -3.6980 C.3       1 <0>         0.0000
     11 C11         4.3022   -2.0804   -0.1887 C.3       1 <0>         0.0000
     12 N1          3.8305   -3.9008   -1.7632 N.2       1 <0>         0.0000
     13 N2          3.9929   -2.5599   -1.5199 N.pl3     1 <0>         0.0000
     14 N3          3.8362   -0.4046   -2.5698 N.pl3     1 <0>         0.0000
     15 Cl1        -0.4569    0.5623    2.5012 Cl        1 <0>         0.0000
     16 H1          4.2596    0.2236    1.3015 H         1 <0>         0.0000
     17 H2          1.6994   -2.8853   -0.2038 H         1 <0>         0.0000
     18 H3          2.3138    1.2957    2.4132 H         1 <0>         0.0000
     19 H4         -0.2536   -1.8124    0.9071 H         1 <0>         0.0000
     20 H5          3.1074   -2.4329   -4.6533 H         1 <0>         0.0000
     21 H6          3.9627   -5.4904   -4.5025 H         1 <0>         0.0000
     22 H7          3.3406   -6.1035   -2.9579 H         1 <0>         0.0000
     23 H8          2.2394   -5.3594   -4.1365 H         1 <0>         0.0000
     24 H9          5.1434   -1.3816   -0.2451 H         1 <0>         0.0000
     25 H10         4.6264   -2.9570    0.3772 H         1 <0>         0.0000
     26 H11         3.5626    0.0159   -3.4519 H         1 <0>         0.0000
     27 H12         3.2950    0.0145   -1.8157 H         1 <0>         0.0000
@<TRIPOS>BOND
     1    1    3 ar
     2    1    6 ar
     3    1   16 1
     4    2    4 ar
     5    2    6 ar
     6    2   17 1
     7    3    7 ar
     8    3   18 1
     9    4    7 ar
    10    4   19 1
    11    5    8 1
    12    5    9 2
    13    5   20 1
    14    6   11 1
    15    7   15 1
    16    8   10 1
    17    8   12 2
    18    9   13 1
    19    9   14 1
    20   10   21 1
    21   10   22 1
    22   10   23 1
    23   11   13 1
    24   11   24 1
    25   11   25 1
    26   12   13 1
    27   14   26 1
    28   14   27 1
