@<TRIPOS>MOLECULE
*****
   32    33     0     0     0
SMALL
NO_CHARGES

@<TRIPOS>ATOM
      1 C1          0.7240    3.2720   -3.6350 C.ar      1 <0>         0.0000
      2 C2          1.8430    4.0590   -3.3830 C.ar      1 <0>         0.0000
      3 C3         -0.0360    2.7910   -2.5760 C.ar      1 <0>         0.0000
      4 C4          2.1980    4.3690   -2.0730 C.ar      1 <0>         0.0000
      5 C5          0.3160    3.0850   -1.2530 C.ar      1 <0>         0.0000
      6 C6          1.4410    3.8930   -1.0040 C.ar      1 <0>         0.0000
      7 C7         -0.4850    2.5330   -0.1590 C.2       1 <0>         0.0000
      8 C8         -0.5670   -1.4080    0.1840 C.3       1 <0>         0.0000
      9 C9          0.3460   -0.6580   -0.8060 C.3       1 <0>         0.0000
     10 C10        -1.6520   -0.4690    0.7450 C.3       1 <0>         0.0000
     11 C11         1.0080    0.5120   -0.0520 C.3       1 <0>         0.0000
     12 C12        -0.9520    0.6980    1.4680 C.3       1 <0>         0.0000
     13 C13         1.8360    4.2510    0.4180 C.3       1 <0>         0.0000
     14 N1         -0.1060    1.3410    0.4440 N.am      1 <0>         0.0000
     15 O1         -1.4990    3.0920    0.2460 O.2       1 <0>         0.0000
     16 H1          0.4500    3.0430   -4.6330 H         1 <0>         0.0000
     17 H2          2.4240    4.4260   -4.1900 H         1 <0>         0.0000
     18 H3         -0.8920    2.1950   -2.7660 H         1 <0>         0.0000
     19 H4          3.0500    4.9750   -1.8950 H         1 <0>         0.0000
     20 H5          0.0290   -1.8170    1.0020 H         1 <0>         0.0000
     21 H6         -1.0500   -2.2380   -0.3360 H         1 <0>         0.0000
     22 H7         -0.2410   -0.2770   -1.6440 H         1 <0>         0.0000
     23 H8          1.1160   -1.3310   -1.1840 H         1 <0>         0.0000
     24 H9         -2.2820   -1.0090    1.4520 H         1 <0>         0.0000
     25 H10        -2.2730   -0.0790   -0.0640 H         1 <0>         0.0000
     26 H11         1.5700    0.1230    0.7870 H         1 <0>         0.0000
     27 H12         1.6450    1.0560   -0.7370 H         1 <0>         0.0000
     28 H13        -1.7030    1.3790    1.8470 H         1 <0>         0.0000
     29 H14        -0.3280    0.3090    2.2630 H         1 <0>         0.0000
     30 H15         2.6730    4.9480    0.4040 H         1 <0>         0.0000
     31 H16         2.1170    3.3360    0.9390 H         1 <0>         0.0000
     32 H17         0.9760    4.7150    0.9050 H         1 <0>         0.0000
@<TRIPOS>BOND
     1    1    2 ar
     2    1    3 ar
     3    1   16 1
     4    2    4 ar
     5    2   17 1
     6    3    5 ar
     7    3   18 1
     8    4    6 ar
     9    4   19 1
    10    5    6 ar
    11    5    7 1
    12    6   13 1
    13    7   14 am
    14    7   15 2
    15    8    9 1
    16    8   10 1
    17    8   20 1
    18    8   21 1
    19    9   11 1
    20    9   22 1
    21    9   23 1
    22   10   12 1
    23   10   24 1
    24   10   25 1
    25   11   14 1
    26   11   26 1
    27   11   27 1
    28   12   14 1
    29   12   28 1
    30   12   29 1
    31   13   30 1
    32   13   31 1
    33   13   32 1
