@<TRIPOS>MOLECULE
*****
   34    37     0     0     0
SMALL
NO_CHARGES

@<TRIPOS>ATOM
      1 C1          5.3415   -1.3704    3.7055 C.ar      1 <0>         0.0000
      2 C2          4.1296   -1.2907    2.9944 C.ar      1 <0>         0.0000
      3 C3          6.4357   -0.5812    3.3558 C.ar      1 <0>         0.0000
      4 C4          5.2732    1.3729    0.5027 C.2       1 <0>         0.0000
      5 C5          6.5636    1.8254    0.6426 C.2       1 <0>         0.0000
      6 C6          5.0631    0.3887    1.5298 C.ar      1 <0>         0.0000
      7 C7          3.9611   -0.4196    1.9091 C.ar      1 <0>         0.0000
      8 C8          6.2781    0.2867    2.2699 C.ar      1 <0>         0.0000
      9 C9          1.1478    0.1560   -0.2601 C.2       1 <0>         0.0000
     10 C10         0.5314   -0.6586    0.6853 C.2       1 <0>         0.0000
     11 C11         2.6955   -0.3314    1.1836 C.2       1 <0>         0.0000
     12 C12         0.6188    0.8369   -1.4733 C.2       1 <0>         0.0000
     13 C13        -0.8452   -1.2230    0.8658 C.3       1 <0>         0.0000
     14 C14        -1.8977   -0.6294   -0.0741 C.3       1 <0>         0.0000
     15 C15        -1.4641   -0.6460   -1.5465 C.3       1 <0>         0.0000
     16 N1          2.4766    0.3437    0.0714 N.2       1 <0>         0.0000
     17 N2          7.1746    1.1745    1.7055 N.pl3     1 <0>         0.0000
     18 N3          1.5292   -0.9582    1.5889 N.pl3     1 <0>         0.0000
     19 N4         -0.6416    0.4983   -1.9214 N.am      1 <0>         0.0000
     20 O1          1.2684    1.7019   -2.0598 O.2       1 <0>         0.0000
     21 H1          5.4242   -2.0632    4.5383 H         1 <0>         0.0000
     22 H2          3.3182   -1.9456    3.3032 H         1 <0>         0.0000
     23 H3          7.3713   -0.6437    3.9061 H         1 <0>         0.0000
     24 H4          4.5491    1.6806   -0.2368 H         1 <0>         0.0000
     25 H5          7.1060    2.5632    0.0658 H         1 <0>         0.0000
     26 H6         -0.8030   -2.3105    0.7108 H         1 <0>         0.0000
     27 H7         -1.1669   -1.0765    1.9052 H         1 <0>         0.0000
     28 H8         -2.8189   -1.2118    0.0364 H         1 <0>         0.0000
     29 H9         -2.1277    0.4026    0.2095 H         1 <0>         0.0000
     30 H10        -0.9546   -1.5941   -1.7737 H         1 <0>         0.0000
     31 H11        -2.3521   -0.6035   -2.1823 H         1 <0>         0.0000
     32 H12         8.1223    1.3255    2.0185 H         1 <0>         0.0000
     33 H13         1.4008   -1.4994    2.4339 H         1 <0>         0.0000
     34 H14        -0.8700    0.9756   -2.7852 H         1 <0>         0.0000
@<TRIPOS>BOND
     1    1    2 ar
     2    1    3 ar
     3    1   21 1
     4    2    7 ar
     5    2   22 1
     6    3    8 ar
     7    3   23 1
     8    4    5 2
     9    4    6 1
    10    4   24 1
    11    5   17 1
    12    5   25 1
    13    6    7 ar
    14    6    8 ar
    15    7   11 1
    16    8   17 1
    17    9   10 2
    18    9   12 1
    19    9   16 1
    20   10   13 1
    21   10   18 1
    22   11   16 2
    23   11   18 1
    24   12   19 am
    25   12   20 2
    26   13   14 1
    27   13   26 1
    28   13   27 1
    29   14   15 1
    30   14   28 1
    31   14   29 1
    32   15   19 1
    33   15   30 1
    34   15   31 1
    35   17   32 1
    36   18   33 1
    37   19   34 1
