@<TRIPOS>MOLECULE
*****
   35    36     0     0     0
SMALL
NO_CHARGES

@<TRIPOS>ATOM
      1 C1          0.5619    4.0489   -2.8013 C.ar      1 <0>         0.0000
      2 C2          0.0043    2.5885   -4.6413 C.ar      1 <0>         0.0000
      3 C3          1.1137    2.9743   -2.1028 C.ar      1 <0>         0.0000
      4 C4          0.5503    1.5021   -3.9563 C.ar      1 <0>         0.0000
      5 C5         -0.0022    3.8735   -4.0752 C.ar      1 <0>         0.0000
      6 C6          1.0924    1.7045   -2.6850 C.ar      1 <0>         0.0000
      7 C7         -0.8048    0.1484    1.4413 C.2       1 <0>         0.0000
      8 C8         -0.1140    0.7367    0.2119 C.3       1 <0>         0.0000
      9 C9         -1.8693   -1.6165   -1.0179 C.3       1 <0>         0.0000
     10 C10        -0.7258   -0.8797   -1.7271 C.3       1 <0>         0.0000
     11 C11        -2.6640   -0.7480   -0.0345 C.3       1 <0>         0.0000
     12 C12         0.3512   -0.3347   -0.7853 C.3       1 <0>         0.0000
     13 C13        -0.5637    5.0498   -4.8377 C.3       1 <0>         0.0000
     14 N1         -1.9861   -0.5108    1.2370 N.am      1 <0>         0.0000
     15 O1         -0.3190    0.2613    2.5646 O.2       1 <0>         0.0000
     16 O2          2.1206   -0.7394   -2.7568 O.2       1 <0>         0.0000
     17 O3          2.7720    0.8287   -0.8335 O.2       1 <0>         0.0000
     18 S1          1.7718    0.3087   -1.7804 S.o2      1 <0>         0.0000
     19 H1          0.5777    5.0397   -2.3534 H         1 <0>         0.0000
     20 H2         -0.4158    2.4372   -5.6329 H         1 <0>         0.0000
     21 H3          1.5744    3.1164   -1.1303 H         1 <0>         0.0000
     22 H4          0.5780    0.5128   -4.4024 H         1 <0>         0.0000
     23 H5         -0.7769    1.4489   -0.2926 H         1 <0>         0.0000
     24 H6          0.7458    1.2795    0.6041 H         1 <0>         0.0000
     25 H7         -2.5589   -1.9807   -1.7886 H         1 <0>         0.0000
     26 H8         -1.4881   -2.4970   -0.4878 H         1 <0>         0.0000
     27 H9         -0.2524   -1.5568   -2.4431 H         1 <0>         0.0000
     28 H10        -1.1486   -0.0461   -2.3011 H         1 <0>         0.0000
     29 H11        -2.9259    0.2072   -0.5091 H         1 <0>         0.0000
     30 H12        -3.6081   -1.2425    0.2069 H         1 <0>         0.0000
     31 H13         0.8419   -1.1543   -0.2460 H         1 <0>         0.0000
     32 H14         0.2194    5.5282   -5.4378 H         1 <0>         0.0000
     33 H15        -1.3591    4.7410   -5.5219 H         1 <0>         0.0000
     34 H16        -0.9682    5.8085   -4.1617 H         1 <0>         0.0000
     35 H17        -2.3878   -0.8992    2.0823 H         1 <0>         0.0000
@<TRIPOS>BOND
     1    1    3 ar
     2    1    5 ar
     3    1   19 1
     4    2    4 ar
     5    2    5 ar
     6    2   20 1
     7    3    6 ar
     8    3   21 1
     9    4    6 ar
    10    4   22 1
    11    5   13 1
    12    6   18 1
    13    7    8 1
    14    7   14 am
    15    7   15 2
    16    8   12 1
    17    8   23 1
    18    8   24 1
    19    9   10 1
    20    9   11 1
    21    9   25 1
    22    9   26 1
    23   10   12 1
    24   10   27 1
    25   10   28 1
    26   11   14 1
    27   11   29 1
    28   11   30 1
    29   12   18 1
    30   12   31 1
    31   13   32 1
    32   13   33 1
    33   13   34 1
    34   14   35 1
    35   16   18 2
    36   17   18 2
