@<TRIPOS>MOLECULE
*****
   15    15     0     0     0
SMALL
NO_CHARGES

@<TRIPOS>ATOM
      1 C1          2.6912   -0.1451    3.7856 C.1       1 <0>         0.0000
      2 C2          0.2230   -0.4473    0.9609 C.ar      1 <0>         0.0000
      3 C3         -0.5751   -1.4348    1.5393 C.ar      1 <0>         0.0000
      4 C4          0.7240   -1.5097    3.4183 C.ar      1 <0>         0.0000
      5 C5          1.5985   -0.5150    2.9307 C.ar      1 <0>         0.0000
      6 C6          1.3350    0.0322    1.6574 C.ar      1 <0>         0.0000
      7 C7          2.1520    1.0931    0.9814 C.2       1 <0>         0.0000
      8 N1          3.5354    0.0757    4.5570 N.1       1 <0>         0.0000
      9 N2         -0.3354   -1.9630    2.7486 N.ar      1 <0>         0.0000
     10 O1          1.8883    1.5371   -0.1195 O.2       1 <0>         0.0000
     11 O2          3.2053    1.5035    1.7146 O.3       1 <0>         0.0000
     12 H1         -0.0027   -0.0438   -0.0202 H         1 <0>         0.0000
     13 H2         -1.4447   -1.8193    1.0103 H         1 <0>         0.0000
     14 H3          0.9094   -1.9446    4.3979 H         1 <0>         0.0000
     15 H4          3.6696    2.1877    1.1939 H         1 <0>         0.0000
@<TRIPOS>BOND
     1    1    5 1
     2    1    8 3
     3    2    3 ar
     4    2    6 ar
     5    2   12 1
     6    3    9 ar
     7    3   13 1
     8    4    5 ar
     9    4    9 ar
    10    4   14 1
    11    5    6 ar
    12    6    7 1
    13    7   10 2
    14    7   11 1
    15   11   15 1
