@<TRIPOS>MOLECULE
*****
   50    50     0     0     0
SMALL
NO_CHARGES

@<TRIPOS>ATOM
      1 C1         -5.0882   -1.3493    1.4391 C.2       1 <0>         0.0000
      2 C2         -5.9203   -3.2688   -0.9252 C.2       1 <0>         0.0000
      3 C3         -5.4842   -0.8079    2.7991 C.3       1 <0>         0.0000
      4 C4         -7.0221   -0.8401    2.7844 C.3       1 <0>         0.0000
      5 C5         -7.3959   -0.8280    1.2826 C.3       1 <0>         0.0000
      6 C6         -6.2829   -7.5805   -1.9652 C.3       1 <0>         0.0000
      7 C7         -8.1251   -7.7853   -0.2649 C.3       1 <0>         0.0000
      8 C8         -6.3329   -4.7380    2.1664 C.3       1 <0>         0.0000
      9 C9         -5.9564   -7.2315    2.5610 C.3       1 <0>         0.0000
     10 C10        -6.1183   -1.7594   -0.7681 C.3       1 <0>         0.0000
     11 C11        -4.2764   -5.0987   -1.0671 C.3       1 <0>         0.0000
     12 C12        -4.6291   -6.1067    0.0327 C.3       1 <0>         0.0000
     13 C13        -6.6201   -7.6016   -0.4719 C.3       1 <0>         0.0000
     14 C14        -6.5760   -6.1626    1.6644 C.3       1 <0>         0.0000
     15 C15        -7.6994    0.5916    0.7816 C.3       1 <0>         0.0000
     16 N1         -6.2087   -1.3856    0.6418 N.am      1 <0>         0.0000
     17 N2         -4.6562   -3.7185   -0.7869 N.am      1 <0>         0.0000
     18 N3         -6.1251   -6.3116    0.2040 N.4       1 <0>         0.0000
     19 O1         -3.9729   -1.7183    1.0710 O.2       1 <0>         0.0000
     20 O2         -6.8862   -4.0274   -1.1470 O.2       1 <0>         0.0000
     21 F1         -8.7887    1.0831    1.4042 F         1 <0>         0.0000
     22 F2         -6.6661    1.4332    1.0102 F         1 <0>         0.0000
     23 F3         -7.9451    0.6056   -0.5512 F         1 <0>         0.0000
     24 H1         -5.0339   -1.4085    3.5913 H         1 <0>         0.0000
     25 H2         -5.0874    0.2076    2.8881 H         1 <0>         0.0000
     26 H3         -7.3913   -1.7686    3.2261 H         1 <0>         0.0000
     27 H4         -7.4803   -0.0117    3.3251 H         1 <0>         0.0000
     28 H5         -8.2825   -1.4295    1.0640 H         1 <0>         0.0000
     29 H6         -6.7564   -6.7324   -2.4682 H         1 <0>         0.0000
     30 H7         -5.2097   -7.5618   -2.1635 H         1 <0>         0.0000
     31 H8         -6.6704   -8.4968   -2.4164 H         1 <0>         0.0000
     32 H9         -8.6832   -6.9002   -0.5879 H         1 <0>         0.0000
     33 H10        -8.3941   -8.0224    0.7657 H         1 <0>         0.0000
     34 H11        -8.4571   -8.6239   -0.8812 H         1 <0>         0.0000
     35 H12        -5.2749   -4.4762    2.2426 H         1 <0>         0.0000
     36 H13        -6.8315   -4.0027    1.5321 H         1 <0>         0.0000
     37 H14        -6.7611   -4.6590    3.1695 H         1 <0>         0.0000
     38 H15        -4.8692   -7.1377    2.6312 H         1 <0>         0.0000
     39 H16        -6.1979   -8.2452    2.2329 H         1 <0>         0.0000
     40 H17        -6.3579   -7.1135    3.5706 H         1 <0>         0.0000
     41 H18        -5.2949   -1.2117   -1.2358 H         1 <0>         0.0000
     42 H19        -7.0464   -1.4994   -1.2713 H         1 <0>         0.0000
     43 H20        -3.1911   -5.1223   -1.1903 H         1 <0>         0.0000
     44 H21        -4.7190   -5.3897   -2.0207 H         1 <0>         0.0000
     45 H22        -4.2207   -5.7613    0.9796 H         1 <0>         0.0000
     46 H23        -4.1767   -7.0750   -0.1858 H         1 <0>         0.0000
     47 H24        -6.0732   -8.4135    0.0134 H         1 <0>         0.0000
     48 H25        -7.6543   -6.3067    1.6264 H         1 <0>         0.0000
     49 H26        -3.9777   -3.0613   -0.3963 H         1 <0>         0.0000
     50 H27        -6.5771   -5.5259   -0.3226 H         1 <0>         0.0000
@<TRIPOS>BOND
     1    1    3 1
     2    1   16 am
     3    1   19 2
     4    2   10 1
     5    2   17 am
     6    2   20 2
     7    3    4 1
     8    3   24 1
     9    3   25 1
    10    4    5 1
    11    4   26 1
    12    4   27 1
    13    5   15 1
    14    5   16 1
    15    5   28 1
    16    6   13 1
    17    6   29 1
    18    6   30 1
    19    6   31 1
    20    7   13 1
    21    7   32 1
    22    7   33 1
    23    7   34 1
    24    8   14 1
    25    8   35 1
    26    8   36 1
    27    8   37 1
    28    9   14 1
    29    9   38 1
    30    9   39 1
    31    9   40 1
    32   10   16 1
    33   10   41 1
    34   10   42 1
    35   11   12 1
    36   11   17 1
    37   11   43 1
    38   11   44 1
    39   12   18 1
    40   12   45 1
    41   12   46 1
    42   13   18 1
    43   13   47 1
    44   14   18 1
    45   14   48 1
    46   15   21 1
    47   15   22 1
    48   15   23 1
    49   17   49 1
    50   18   50 1
