@<TRIPOS>MOLECULE
*****
   49    51     0     0     0
SMALL
NO_CHARGES

@<TRIPOS>ATOM
      1 C1         -2.4592   -1.6532    6.0572 C.ar      1 <0>         0.0000
      2 C2         -1.7836   -0.6421    5.3824 C.ar      1 <0>         0.0000
      3 C3         -3.1863   -2.6177    5.3482 C.ar      1 <0>         0.0000
      4 C4         -2.6068   -1.5017    3.2364 C.ar      1 <0>         0.0000
      5 C5         -1.8702   -0.5712    3.9921 C.ar      1 <0>         0.0000
      6 C6         -3.2504   -2.5347    3.9444 C.ar      1 <0>         0.0000
      7 C7         -5.9600   -3.9916    7.3750 C.2       1 <0>         0.0000
      8 C8         -3.7339   -3.7579    8.6509 C.2       1 <0>         0.0000
      9 C9         -3.8119   -3.7401    6.1272 C.2       1 <0>         0.0000
     10 C10        -6.0917   -5.4457    7.7958 C.3       1 <0>         0.0000
     11 C11        -4.1503   -5.0214    9.3748 C.3       1 <0>         0.0000
     12 C12        -4.8388   -6.0398    8.4567 C.3       1 <0>         0.0000
     13 C13        -2.2831   -2.6565   -1.1141 C.3       1 <0>         0.0000
     14 C14        -1.8757   -4.1273   -1.2174 C.3       1 <0>         0.0000
     15 C15        -0.0269   -3.0083   -0.3604 C.3       1 <0>         0.0000
     16 C16        -4.5657   -3.3474    7.4170 C.3       1 <0>         0.0000
     17 C17        -1.2594   -2.1263   -0.0965 C.3       1 <0>         0.0000
     18 C18        -2.2789    2.0193    2.9070 C.3       1 <0>         0.0000
     19 C19        -2.6631   -1.4676    1.7237 C.3       1 <0>         0.0000
     20 O1         -6.9161   -3.3237    7.0260 O.2       1 <0>         0.0000
     21 O2         -2.8069   -3.0569    9.0166 O.2       1 <0>         0.0000
     22 O3         -3.7329   -4.9033    5.7763 O.2       1 <0>         0.0000
     23 O4         -0.1174    1.3974    4.2990 O.2       1 <0>         0.0000
     24 O5         -0.3719    0.4189    1.9581 O.2       1 <0>         0.0000
     25 O6         -0.4444   -4.1040   -1.1914 O.3       1 <0>         0.0000
     26 O7         -1.6673   -2.3651    1.2573 O.3       1 <0>         0.0000
     27 S1         -0.9616    0.8244    3.2413 S.o2      1 <0>         0.0000
     28 Cl1        -4.1892   -3.7107    3.0513 Cl        1 <0>         0.0000
     29 H1         -2.3956   -1.7187    7.1398 H         1 <0>         0.0000
     30 H2         -1.1854    0.0849    5.9208 H         1 <0>         0.0000
     31 H3         -6.9564   -5.4860    8.4678 H         1 <0>         0.0000
     32 H4         -6.3701   -6.0139    6.9018 H         1 <0>         0.0000
     33 H5         -3.2675   -5.4310    9.8721 H         1 <0>         0.0000
     34 H6         -4.8410   -4.7016   10.1698 H         1 <0>         0.0000
     35 H7         -4.1372   -6.3689    7.6879 H         1 <0>         0.0000
     36 H8         -5.1175   -6.9225    9.0394 H         1 <0>         0.0000
     37 H9         -2.1405   -2.1556   -2.0779 H         1 <0>         0.0000
     38 H10        -3.3184   -2.5094   -0.7952 H         1 <0>         0.0000
     39 H11        -2.2690   -4.7001   -0.3651 H         1 <0>         0.0000
     40 H12        -2.1838   -4.6123   -2.1472 H         1 <0>         0.0000
     41 H13         0.7610   -2.4640   -0.8897 H         1 <0>         0.0000
     42 H14         0.3666   -3.3738    0.5943 H         1 <0>         0.0000
     43 H15        -4.7020   -2.2662    7.4438 H         1 <0>         0.0000
     44 H16        -1.0377   -1.0598   -0.2139 H         1 <0>         0.0000
     45 H17        -1.7872    2.8929    2.4736 H         1 <0>         0.0000
     46 H18        -2.9927    1.5935    2.2010 H         1 <0>         0.0000
     47 H19        -2.7609    2.2778    3.8506 H         1 <0>         0.0000
     48 H20        -3.6611   -1.7665    1.3832 H         1 <0>         0.0000
     49 H21        -2.4654   -0.4628    1.3435 H         1 <0>         0.0000
@<TRIPOS>BOND
     1    1    2 ar
     2    1    3 ar
     3    1   29 1
     4    2    5 ar
     5    2   30 1
     6    3    6 ar
     7    3    9 1
     8    4    5 ar
     9    4    6 ar
    10    4   19 1
    11    5   27 1
    12    6   28 1
    13    7   10 1
    14    7   16 1
    15    7   20 2
    16    8   11 1
    17    8   16 1
    18    8   21 2
    19    9   16 1
    20    9   22 2
    21   10   12 1
    22   10   31 1
    23   10   32 1
    24   11   12 1
    25   11   33 1
    26   11   34 1
    27   12   35 1
    28   12   36 1
    29   13   14 1
    30   13   17 1
    31   13   37 1
    32   13   38 1
    33   14   25 1
    34   14   39 1
    35   14   40 1
    36   15   17 1
    37   15   25 1
    38   15   41 1
    39   15   42 1
    40   16   43 1
    41   17   26 1
    42   17   44 1
    43   18   27 1
    44   18   45 1
    45   18   46 1
    46   18   47 1
    47   19   26 1
    48   19   48 1
    49   19   49 1
    50   23   27 2
    51   24   27 2
