@<TRIPOS>MOLECULE
*****
   37    37     0     0     0
SMALL
NO_CHARGES

@<TRIPOS>ATOM
      1 C1          8.6404   -2.1988   -1.5346 C.2       1 <0>         0.0000
      2 C2          7.5534   -0.9250    0.1073 C.2       1 <0>         0.0000
      3 C3          9.2676   -3.2493   -2.4020 C.2       1 <0>         0.0000
      4 C4          0.4024    1.9545    1.0642 C.3       1 <0>         0.0000
      5 C5         12.8192   -2.5447   -4.0604 C.3       1 <0>         0.0000
      6 C6          1.7087    1.6138    1.7895 C.3       1 <0>         0.0000
      7 C7         12.0014   -3.8396   -4.0968 C.3       1 <0>         0.0000
      8 C8          2.7871    1.0668    0.8464 C.3       1 <0>         0.0000
      9 C9          4.0946    0.7241    1.5736 C.3       1 <0>         0.0000
     10 C10        10.5321   -3.6218   -4.4829 C.3       1 <0>         0.0000
     11 C11         5.1476    0.1801    0.6123 C.3       1 <0>         0.0000
     12 N1          8.6500   -0.9180   -1.8118 N.2       1 <0>         0.0000
     13 N2          8.0218   -0.1722   -0.8504 N.2       1 <0>         0.0000
     14 N3          9.8106   -2.7651   -3.5442 N.am      1 <0>         0.0000
     15 O1          9.2523   -4.4332   -2.0614 O.2       1 <0>         0.0000
     16 O2          6.3305   -1.4942    2.3937 O.2       1 <0>         0.0000
     17 S1          7.8487   -2.6315   -0.0480 S.3       1 <0>         0.0000
     18 S2          6.6714   -0.2754    1.5591 S.o       1 <0>         0.0000
     19 H1          0.5652    2.7151    0.2918 H         1 <0>         0.0000
     20 H2         -0.0202    1.0698    0.5743 H         1 <0>         0.0000
     21 H3         -0.3496    2.3415    1.7598 H         1 <0>         0.0000
     22 H4         12.8077   -2.0386   -5.0334 H         1 <0>         0.0000
     23 H5         12.4273   -1.8465   -3.3129 H         1 <0>         0.0000
     24 H6         13.8639   -2.7465   -3.8039 H         1 <0>         0.0000
     25 H7          1.5109    0.8758    2.5773 H         1 <0>         0.0000
     26 H8          2.0917    2.5089    2.2966 H         1 <0>         0.0000
     27 H9         12.0342   -4.3375   -3.1220 H         1 <0>         0.0000
     28 H10        12.4370   -4.5376   -4.8223 H         1 <0>         0.0000
     29 H11         2.9873    1.8028    0.0560 H         1 <0>         0.0000
     30 H12         2.4064    0.1686    0.3421 H         1 <0>         0.0000
     31 H13         3.8997   -0.0220    2.3517 H         1 <0>         0.0000
     32 H14         4.4805    1.6199    2.0765 H         1 <0>         0.0000
     33 H15        10.4603   -3.1577   -5.4722 H         1 <0>         0.0000
     34 H16        10.0093   -4.5804   -4.5203 H         1 <0>         0.0000
     35 H17         5.4603    0.9147   -0.1364 H         1 <0>         0.0000
     36 H18         4.8109   -0.7336    0.1127 H         1 <0>         0.0000
     37 H19         9.7950   -1.7594   -3.6710 H         1 <0>         0.0000
@<TRIPOS>BOND
     1    1    3 1
     2    1   12 2
     3    1   17 1
     4    2   13 2
     5    2   17 1
     6    2   18 1
     7    3   14 am
     8    3   15 2
     9    4    6 1
    10    4   19 1
    11    4   20 1
    12    4   21 1
    13    5    7 1
    14    5   22 1
    15    5   23 1
    16    5   24 1
    17    6    8 1
    18    6   25 1
    19    6   26 1
    20    7   10 1
    21    7   27 1
    22    7   28 1
    23    8    9 1
    24    8   29 1
    25    8   30 1
    26    9   11 1
    27    9   31 1
    28    9   32 1
    29   10   14 1
    30   10   33 1
    31   10   34 1
    32   11   18 1
    33   11   35 1
    34   11   36 1
    35   12   13 1
    36   14   37 1
    37   16   18 2
