@<TRIPOS>MOLECULE
*****
   38    39     0     0     0
SMALL
NO_CHARGES

@<TRIPOS>ATOM
      1 C1          5.4024   -0.2707    5.3934 C.ar      1 <0>         0.0000
      2 C2          5.2735    0.4317    4.1894 C.ar      1 <0>         0.0000
      3 C3          2.9901   -0.3985    5.5635 C.ar      1 <0>         0.0000
      4 C4          4.2661   -0.6919    6.0887 C.ar      1 <0>         0.0000
      5 C5          4.0101    0.7205    3.6691 C.ar      1 <0>         0.0000
      6 C6          2.8453    0.3004    4.3724 C.ar      1 <0>         0.0000
      7 C7          4.3328   -1.4496    7.3729 C.2       1 <0>         0.0000
      8 C8         -0.7913    0.1204    2.2886 C.3       1 <0>         0.0000
      9 C9         -0.2942   -1.3229    2.5974 C.3       1 <0>         0.0000
     10 C10        -0.6915    0.8860    3.6257 C.3       1 <0>         0.0000
     11 C11         0.1942   -1.3042    4.0682 C.3       1 <0>         0.0000
     12 C12         0.4306    0.1793    4.3845 C.3       1 <0>         0.0000
     13 C13         5.6244   -2.5391    9.2818 C.3       1 <0>         0.0000
     14 C14         4.9126    1.8462    1.7690 C.3       1 <0>         0.0000
     15 C15         5.7027   -1.7655    7.9663 C.3       1 <0>         0.0000
     16 O1          3.3063   -1.8123    7.9428 O.2       1 <0>         0.0000
     17 O2          1.6632    0.6490    3.7962 O.3       1 <0>         0.0000
     18 O3          3.7831    1.3929    2.5087 O.3       1 <0>         0.0000
     19 H1          6.3977   -0.4814    5.7696 H         1 <0>         0.0000
     20 H2          6.1660    0.7488    3.6625 H         1 <0>         0.0000
     21 H3          2.1320   -0.7436    6.1260 H         1 <0>         0.0000
     22 H4         -0.1430    0.5912    1.5451 H         1 <0>         0.0000
     23 H5         -1.8092    0.1341    1.8883 H         1 <0>         0.0000
     24 H6         -1.0831   -2.0675    2.4565 H         1 <0>         0.0000
     25 H7          0.5246   -1.5952    1.9264 H         1 <0>         0.0000
     26 H8         -0.4878    1.9531    3.5047 H         1 <0>         0.0000
     27 H9         -1.6155    0.7808    4.2057 H         1 <0>         0.0000
     28 H10        -0.5831   -1.6780    4.7445 H         1 <0>         0.0000
     29 H11         1.0846   -1.9155    4.2316 H         1 <0>         0.0000
     30 H12         0.4289    0.4098    5.4552 H         1 <0>         0.0000
     31 H13         5.0715   -1.9740   10.0367 H         1 <0>         0.0000
     32 H14         5.1061   -3.4920    9.1461 H         1 <0>         0.0000
     33 H15         6.6298   -2.7410    9.6651 H         1 <0>         0.0000
     34 H16         4.5078    2.3542    0.8930 H         1 <0>         0.0000
     35 H17         5.5413    1.0075    1.4456 H         1 <0>         0.0000
     36 H18         5.5153    2.5521    2.3534 H         1 <0>         0.0000
     37 H19         6.2793   -2.3287    7.2215 H         1 <0>         0.0000
     38 H20         6.2438   -0.8209    8.1056 H         1 <0>         0.0000
@<TRIPOS>BOND
     1    1    2 ar
     2    1    4 ar
     3    1   19 1
     4    2    5 ar
     5    2   20 1
     6    3    4 ar
     7    3    6 ar
     8    3   21 1
     9    4    7 1
    10    5    6 ar
    11    5   18 1
    12    6   17 1
    13    7   15 1
    14    7   16 2
    15    8    9 1
    16    8   10 1
    17    8   22 1
    18    8   23 1
    19    9   11 1
    20    9   24 1
    21    9   25 1
    22   10   12 1
    23   10   26 1
    24   10   27 1
    25   11   12 1
    26   11   28 1
    27   11   29 1
    28   12   17 1
    29   12   30 1
    30   13   15 1
    31   13   31 1
    32   13   32 1
    33   13   33 1
    34   14   18 1
    35   14   34 1
    36   14   35 1
    37   14   36 1
    38   15   37 1
    39   15   38 1
