@<TRIPOS>MOLECULE
*****
   73    77     0     0     0
SMALL
NO_CHARGES

@<TRIPOS>ATOM
      1 C1          3.7289    1.8865    0.5766 C.ar      1 <0>         0.0000
      2 C2          4.4612   -0.4060    0.7524 C.ar      1 <0>         0.0000
      3 C3          2.5475    1.3918    5.9652 C.ar      1 <0>         0.0000
      4 C4          1.7128    2.5467    4.0334 C.ar      1 <0>         0.0000
      5 C5          2.1474    2.4646    6.7712 C.ar      1 <0>         0.0000
      6 C6          1.3266    3.6149    4.8394 C.ar      1 <0>         0.0000
      7 C7          5.0188    2.2784    0.2108 C.ar      1 <0>         0.0000
      8 C8          5.7576   -0.0359    0.3816 C.ar      1 <0>         0.0000
      9 C9         -0.4867   -0.7669    1.9474 C.ar      1 <0>         0.0000
     10 C10         3.4355    0.5450    0.8608 C.ar      1 <0>         0.0000
     11 C11         2.0559    0.1204    1.2605 C.ar      1 <0>         0.0000
     12 C12         1.1090   -0.1044    0.2405 C.ar      1 <0>         0.0000
     13 C13         2.3256    1.4141    4.5876 C.ar      1 <0>         0.0000
     14 C14         1.5274    3.5990    6.2317 C.ar      1 <0>         0.0000
     15 C15         0.4339   -0.5254    2.9640 C.ar      1 <0>         0.0000
     16 C16         1.7303   -0.0687    2.6167 C.ar      1 <0>         0.0000
     17 C17        -0.1669   -0.5545    0.6037 C.ar      1 <0>         0.0000
     18 C18         6.0104    1.3064    0.1202 C.ar      1 <0>         0.0000
     19 C19        -2.9294    0.4906   -2.1682 C.3       1 <0>         0.0000
     20 C20        -2.1843   -0.8427   -2.4652 C.3       1 <0>         0.0000
     21 C21        -1.5717    1.1092   -1.7325 C.3       1 <0>         0.0000
     22 C22         0.4327   -0.6021   -2.1140 C.3       1 <0>         0.0000
     23 C23         1.4531    0.1020   -1.2145 C.3       1 <0>         0.0000
     24 C24        -0.9826   -0.3286   -1.6410 C.3       1 <0>         0.0000
     25 C25        -0.4571   -2.2048    4.6359 C.3       1 <0>         0.0000
     26 C26        -1.1010    0.2486    4.8194 C.3       1 <0>         0.0000
     27 C27        -0.4574    4.9780    6.9217 C.3       1 <0>         0.0000
     28 C28         1.7975    6.0685    6.6168 C.3       1 <0>         0.0000
     29 C29         1.3681    4.5854    8.5808 C.3       1 <0>         0.0000
     30 C30         2.7623    0.2728    3.6849 C.3       1 <0>         0.0000
     31 C31        -0.0057   -0.7513    4.4069 C.3       1 <0>         0.0000
     32 C32         1.0680    4.7889    7.0853 C.3       1 <0>         0.0000
     33 O1         -1.1481   -0.8515   -0.3028 O.3       1 <0>         0.0000
     34 O2          1.4746    1.5261   -1.4675 O.3       1 <0>         0.0000
     35 O3          3.1041   -0.8618    4.5053 O.3       1 <0>         0.0000
     36 F1          7.2671    1.6806   -0.2397 F         1 <0>         0.0000
     37 H1          2.9383    2.6262    0.6380 H         1 <0>         0.0000
     38 H2          4.2419   -1.4509    0.9581 H         1 <0>         0.0000
     39 H3          3.0194    0.5233    6.4121 H         1 <0>         0.0000
     40 H4          1.5135    2.5831    2.9656 H         1 <0>         0.0000
     41 H5          2.3290    2.3970    7.8384 H         1 <0>         0.0000
     42 H6          0.8471    4.4697    4.3698 H         1 <0>         0.0000
     43 H7          5.2593    3.3156   -0.0024 H         1 <0>         0.0000
     44 H8          6.5583   -0.7644    0.2972 H         1 <0>         0.0000
     45 H9         -1.4890   -1.1169    2.1752 H         1 <0>         0.0000
     46 H10        -3.6281    0.3920   -1.3341 H         1 <0>         0.0000
     47 H11        -3.4435    0.9666   -3.0073 H         1 <0>         0.0000
     48 H12        -2.6310   -1.7726   -2.1048 H         1 <0>         0.0000
     49 H13        -1.9246   -0.9508   -3.5228 H         1 <0>         0.0000
     50 H14        -1.0956    1.6868   -2.5280 H         1 <0>         0.0000
     51 H15        -1.5377    1.6928   -0.8102 H         1 <0>         0.0000
     52 H16         0.5526   -0.2664   -3.1496 H         1 <0>         0.0000
     53 H17         0.6091   -1.6852   -2.0929 H         1 <0>         0.0000
     54 H18         2.4537   -0.3051   -1.4068 H         1 <0>         0.0000
     55 H19        -1.3488   -2.4555    4.0514 H         1 <0>         0.0000
     56 H20        -0.6979   -2.3619    5.6932 H         1 <0>         0.0000
     57 H21         0.3353   -2.9083    4.3602 H         1 <0>         0.0000
     58 H22        -2.0074    0.1249    4.2162 H         1 <0>         0.0000
     59 H23        -0.7519    1.2785    4.7047 H         1 <0>         0.0000
     60 H24        -1.3728    0.0976    5.8701 H         1 <0>         0.0000
     61 H25        -0.8055    5.8222    7.5280 H         1 <0>         0.0000
     62 H26        -0.7324    5.1780    5.8819 H         1 <0>         0.0000
     63 H27        -0.9964    4.0803    7.2425 H         1 <0>         0.0000
     64 H28         1.4819    6.9302    7.2163 H         1 <0>         0.0000
     65 H29         2.8819    5.9574    6.7210 H         1 <0>         0.0000
     66 H30         1.5849    6.2957    5.5679 H         1 <0>         0.0000
     67 H31         1.0237    5.4566    9.1480 H         1 <0>         0.0000
     68 H32         0.8543    3.7060    8.9830 H         1 <0>         0.0000
     69 H33         2.4409    4.4726    8.7691 H         1 <0>         0.0000
     70 H34         3.6731    0.6070    3.1787 H         1 <0>         0.0000
     71 H35         0.8501   -0.5869    5.0566 H         1 <0>         0.0000
     72 H36         1.9510    1.6676   -2.3013 H         1 <0>         0.0000
     73 H37         3.3646   -1.5743    3.9012 H         1 <0>         0.0000
@<TRIPOS>BOND
     1    1    7 ar
     2    1   10 ar
     3    1   37 1
     4    2    8 ar
     5    2   10 ar
     6    2   38 1
     7    3    5 ar
     8    3   13 ar
     9    3   39 1
    10    4    6 ar
    11    4   13 ar
    12    4   40 1
    13    5   14 ar
    14    5   41 1
    15    6   14 ar
    16    6   42 1
    17    7   18 ar
    18    7   43 1
    19    8   18 ar
    20    8   44 1
    21    9   15 ar
    22    9   17 ar
    23    9   45 1
    24   10   11 1
    25   11   12 ar
    26   11   16 ar
    27   12   17 ar
    28   12   23 1
    29   13   30 1
    30   14   32 1
    31   15   16 ar
    32   15   31 1
    33   16   30 1
    34   17   33 1
    35   18   36 1
    36   19   21 1
    37   19   20 1
    38   19   46 1
    39   19   47 1
    40   20   24 1
    41   20   48 1
    42   20   49 1
    43   21   24 1
    44   21   50 1
    45   21   51 1
    46   22   23 1
    47   22   24 1
    48   22   52 1
    49   22   53 1
    50   23   34 1
    51   23   54 1
    52   24   33 1
    53   25   31 1
    54   25   55 1
    55   25   56 1
    56   25   57 1
    57   26   31 1
    58   26   58 1
    59   26   59 1
    60   26   60 1
    61   27   32 1
    62   27   61 1
    63   27   62 1
    64   27   63 1
    65   28   32 1
    66   28   64 1
    67   28   65 1
    68   28   66 1
    69   29   32 1
    70   29   67 1
    71   29   68 1
    72   29   69 1
    73   30   35 1
    74   30   70 1
    75   31   71 1
    76   34   72 1
    77   35   73 1
