@<TRIPOS>MOLECULE
*****
   58    60     0     0     0
SMALL
NO_CHARGES

@<TRIPOS>ATOM
      1 C1          0.4574   -6.8478    2.3179 C.ar      1 <0>         0.0000
      2 C2          0.4681   -7.8417    1.3371 C.ar      1 <0>         0.0000
      3 C3         -4.6970  -11.0662    2.0760 C.ar      1 <0>         0.0000
      4 C4         -3.3561  -12.3758    0.5028 C.ar      1 <0>         0.0000
      5 C5         -3.5597  -10.8438    2.8524 C.ar      1 <0>         0.0000
      6 C6         -2.2206  -12.1438    1.2805 C.ar      1 <0>         0.0000
      7 C7          1.5621   -2.7341    3.6352 C.ar      1 <0>         0.0000
      8 C8         -0.8212   -2.6544    3.2525 C.ar      1 <0>         0.0000
      9 C9         -0.3666   -8.4265    3.9234 C.ar      1 <0>         0.0000
     10 C10         0.0428   -7.1216    3.6268 C.ar      1 <0>         0.0000
     11 C11         1.4498   -4.0339    4.1439 C.ar      1 <0>         0.0000
     12 C12        -0.9572   -3.9523    3.7573 C.ar      1 <0>         0.0000
     13 C13         0.1812   -4.6437    4.2217 C.ar      1 <0>         0.0000
     14 C14         0.0667   -9.1457    1.6419 C.ar      1 <0>         0.0000
     15 C15         0.4312   -2.0389    3.2044 C.ar      1 <0>         0.0000
     16 C16        -4.5679  -11.8272    0.9153 C.ar      1 <0>         0.0000
     17 C17        -2.3353  -11.3776    2.4416 C.ar      1 <0>         0.0000
     18 C18        -0.3562   -9.4275    2.9522 C.ar      1 <0>         0.0000
     19 C19         0.6843    1.5502    2.4915 C.2       1 <0>         0.0000
     20 C20         2.7021   -4.7660    4.5769 C.3       1 <0>         0.0000
     21 C21        -2.3237   -4.6010    3.7754 C.3       1 <0>         0.0000
     22 C22         1.5729    0.3758    4.5431 C.3       1 <0>         0.0000
     23 C23        -0.9308    0.4722    4.1099 C.3       1 <0>         0.0000
     24 C24         0.0432   -6.0638    4.7254 C.3       1 <0>         0.0000
     25 C25         0.4668    0.3721    3.4728 C.3       1 <0>         0.0000
     26 O1          0.8942    1.4379    1.3129 O.2       1 <0>         0.0000
     27 O2         -1.3238  -10.9639    4.8464 O.2       1 <0>         0.0000
     28 O3          0.1501  -12.0551    3.0631 O.2       1 <0>         0.0000
     29 O4          0.0484  -10.1466    0.7122 O.3       1 <0>         0.0000
     30 O5          0.6252    2.7939    3.0601 O.3       1 <0>         0.0000
     31 O6          0.5664   -0.7865    2.6295 O.3       1 <0>         0.0000
     32 F1         -5.6703  -12.0465    0.1600 F         1 <0>         0.0000
     33 S1         -0.8782  -11.0816    3.4476 S.o2      1 <0>         0.0000
     34 H1          0.7656   -5.8415    2.0504 H         1 <0>         0.0000
     35 H2          0.7902   -7.6013    0.3250 H         1 <0>         0.0000
     36 H3         -5.6683  -10.6737    2.3596 H         1 <0>         0.0000
     37 H4         -3.3143  -12.9708   -0.4042 H         1 <0>         0.0000
     38 H5         -3.6214  -10.2763    3.7757 H         1 <0>         0.0000
     39 H6         -1.2553  -12.5519    1.0026 H         1 <0>         0.0000
     40 H7          2.5359   -2.2620    3.5446 H         1 <0>         0.0000
     41 H8         -1.6854   -2.1214    2.8672 H         1 <0>         0.0000
     42 H9         -0.7032   -8.6896    4.9226 H         1 <0>         0.0000
     43 H10         2.7083   -4.9527    5.6571 H         1 <0>         0.0000
     44 H11         2.7962   -5.7379    4.0812 H         1 <0>         0.0000
     45 H12         3.5950   -4.1828    4.3390 H         1 <0>         0.0000
     46 H13        -2.3200   -5.5609    3.2485 H         1 <0>         0.0000
     47 H14        -2.6632   -4.7969    4.7995 H         1 <0>         0.0000
     48 H15        -3.0676   -3.9583    3.2983 H         1 <0>         0.0000
     49 H16         1.4545   -0.4862    5.2039 H         1 <0>         0.0000
     50 H17         2.5592    0.3275    4.0745 H         1 <0>         0.0000
     51 H18         1.5329    1.2739    5.1681 H         1 <0>         0.0000
     52 H19        -1.1055   -0.3885    4.7597 H         1 <0>         0.0000
     53 H20        -1.7033    0.4927    3.3368 H         1 <0>         0.0000
     54 H21        -1.0367    1.3713    4.7259 H         1 <0>         0.0000
     55 H22        -0.8800   -6.1688    5.3037 H         1 <0>         0.0000
     56 H23         0.8528   -6.2947    5.4242 H         1 <0>         0.0000
     57 H24         0.3533   -9.7956   -0.1398 H         1 <0>         0.0000
     58 H25         0.4491    2.7280    4.0129 H         1 <0>         0.0000
@<TRIPOS>BOND
     1    1    2 ar
     2    1   10 ar
     3    1   34 1
     4    2   14 ar
     5    2   35 1
     6    3    5 ar
     7    3   16 ar
     8    3   36 1
     9    4    6 ar
    10    4   16 ar
    11    4   37 1
    12    5   17 ar
    13    5   38 1
    14    6   17 ar
    15    6   39 1
    16    7   11 ar
    17    7   15 ar
    18    7   40 1
    19    8   12 ar
    20    8   15 ar
    21    8   41 1
    22    9   10 ar
    23    9   18 ar
    24    9   42 1
    25   10   24 1
    26   11   13 ar
    27   11   20 1
    28   12   13 ar
    29   12   21 1
    30   13   24 1
    31   14   18 ar
    32   14   29 1
    33   15   31 1
    34   16   32 1
    35   17   33 1
    36   18   33 1
    37   19   25 1
    38   19   26 2
    39   19   30 1
    40   20   43 1
    41   20   44 1
    42   20   45 1
    43   21   46 1
    44   21   47 1
    45   21   48 1
    46   22   25 1
    47   22   49 1
    48   22   50 1
    49   22   51 1
    50   23   25 1
    51   23   52 1
    52   23   53 1
    53   23   54 1
    54   24   55 1
    55   24   56 1
    56   25   31 1
    57   27   33 2
    58   28   33 2
    59   29   57 1
    60   30   58 1
