@<TRIPOS>MOLECULE
*****
   26    26     0     0     0
SMALL
NO_CHARGES

@<TRIPOS>ATOM
      1 C1          1.5061   -0.8139   -0.0666 C.ar      1 <0>         0.0000
      2 C2          0.1371   -0.7272    0.1988 C.ar      1 <0>         0.0000
      3 C3          2.4096   -0.9856    0.9820 C.ar      1 <0>         0.0000
      4 C4         -0.3145   -0.7977    1.5160 C.ar      1 <0>         0.0000
      5 C5          1.9808   -1.0715    2.3157 C.ar      1 <0>         0.0000
      6 C6          0.5989   -0.9560    2.5619 C.ar      1 <0>         0.0000
      7 C7          3.8070   -0.1932    5.9068 C.3       1 <0>         0.0000
      8 C8          3.0239   -1.2779    3.3765 C.3       1 <0>         0.0000
      9 N1         -0.5096    0.6488    4.3886 N.pl3     1 <0>         0.0000
     10 O1         -1.4366   -1.6728    4.1461 O.2       1 <0>         0.0000
     11 O2          0.8575   -1.4404    5.1859 O.2       1 <0>         0.0000
     12 O3          4.7427    0.7827    3.5988 O.2       1 <0>         0.0000
     13 O4          2.3144    1.2105    4.2188 O.2       1 <0>         0.0000
     14 S1         -0.1471   -0.9814    4.2088 S.o2      1 <0>         0.0000
     15 S2          3.4873    0.3105    4.2049 S.o2      1 <0>         0.0000
     16 H1          1.8714   -0.7518   -1.0878 H         1 <0>         0.0000
     17 H2         -0.5756   -0.6017   -0.6111 H         1 <0>         0.0000
     18 H3          3.4731   -1.0554    0.7708 H         1 <0>         0.0000
     19 H4         -1.3733   -0.7290    1.7426 H         1 <0>         0.0000
     20 H5          4.1251    0.7088    6.4330 H         1 <0>         0.0000
     21 H6          2.8805   -0.5919    6.3206 H         1 <0>         0.0000
     22 H7          4.6084   -0.9342    5.9090 H         1 <0>         0.0000
     23 H8          3.9592   -1.6331    2.9423 H         1 <0>         0.0000
     24 H9          2.6876   -1.9479    4.1647 H         1 <0>         0.0000
     25 H10        -1.1903    0.7552    5.1417 H         1 <0>         0.0000
     26 H11         0.3526    1.1760    4.5579 H         1 <0>         0.0000
@<TRIPOS>BOND
     1    1    2 ar
     2    1    3 ar
     3    1   16 1
     4    2    4 ar
     5    2   17 1
     6    3    5 ar
     7    3   18 1
     8    4    6 ar
     9    4   19 1
    10    5    6 ar
    11    5    8 1
    12    6   14 1
    13    7   15 1
    14    7   20 1
    15    7   21 1
    16    7   22 1
    17    8   15 1
    18    8   23 1
    19    8   24 1
    20    9   14 1
    21    9   25 1
    22    9   26 1
    23   10   14 2
    24   11   14 2
    25   12   15 2
    26   13   15 2
