@<TRIPOS>MOLECULE
*****
   28    29     0     0     0
SMALL
NO_CHARGES

@<TRIPOS>ATOM
      1 C1          4.6818   -0.0730   -0.4397 C.ar      1 <0>         0.0000
      2 C2          4.8408    1.0827   -1.2030 C.ar      1 <0>         0.0000
      3 C3          2.5759    1.4467   -1.4354 C.ar      1 <0>         0.0000
      4 C4          1.4527   -1.4411    0.5146 C.2       1 <0>         0.0000
      5 C5          2.2715    0.3196   -0.6452 C.ar      1 <0>         0.0000
      6 C6          1.0565   -0.3284   -0.1956 C.2       1 <0>         0.0000
      7 C7          3.3657   -0.4531   -0.1616 C.ar      1 <0>         0.0000
      8 C8         -0.3467    0.1617   -0.4049 C.3       1 <0>         0.0000
      9 C9         -0.8355    0.6699    2.0742 C.3       1 <0>         0.0000
     10 C10        -0.7799    1.2076    0.6399 C.3       1 <0>         0.0000
     11 N1          3.8230    1.8259   -1.6972 N.ar      1 <0>         0.0000
     12 N2          2.8345   -1.5169    0.5355 N.pl3     1 <0>         0.0000
     13 N3          0.2239    2.3587    0.6250 N.4       1 <0>         0.0000
     14 O1         -1.7055   -0.4445    2.0278 O.3       1 <0>         0.0000
     15 H1          5.5438   -0.6361   -0.0948 H         1 <0>         0.0000
     16 H2          5.8402    1.4333   -1.4481 H         1 <0>         0.0000
     17 H3          1.7885    2.0423   -1.9054 H         1 <0>         0.0000
     18 H4          0.8469   -2.1956    0.9996 H         1 <0>         0.0000
     19 H5         -1.0653   -0.6565   -0.3275 H         1 <0>         0.0000
     20 H6         -0.4641    0.5882   -1.4083 H         1 <0>         0.0000
     21 H7          0.1742    0.3823    2.4036 H         1 <0>         0.0000
     22 H8         -1.2140    1.4549    2.7462 H         1 <0>         0.0000
     23 H9         -1.7471    1.6403    0.3731 H         1 <0>         0.0000
     24 H10         3.3676   -2.2665    0.9580 H         1 <0>         0.0000
     25 H11         0.1720    2.8887   -0.2526 H         1 <0>         0.0000
     26 H12         1.1864    1.9819    0.6816 H         1 <0>         0.0000
     27 H13         0.0793    3.0201    1.3977 H         1 <0>         0.0000
     28 H14        -1.9450   -0.7101    2.9300 H         1 <0>         0.0000
@<TRIPOS>BOND
     1    1    2 ar
     2    1    7 ar
     3    1   15 1
     4    2   11 ar
     5    2   16 1
     6    3    5 ar
     7    3   11 ar
     8    3   17 1
     9    4    6 2
    10    4   12 1
    11    4   18 1
    12    5    6 1
    13    5    7 ar
    14    6    8 1
    15    7   12 1
    16    8   10 1
    17    8   19 1
    18    8   20 1
    19    9   10 1
    20    9   14 1
    21    9   21 1
    22    9   22 1
    23   10   13 1
    24   10   23 1
    25   12   24 1
    26   13   25 1
    27   13   26 1
    28   13   27 1
    29   14   28 1
