@<TRIPOS>MOLECULE
*****
   37    38     0     0     0
SMALL
NO_CHARGES

@<TRIPOS>ATOM
      1 C1          4.6878   -4.5559    0.0584 C.ar      1 <0>         0.0000
      2 C2          6.1966   -3.6066    1.7059 C.ar      1 <0>         0.0000
      3 C3          2.3425   -1.3263    0.2593 C.ar      1 <0>         0.0000
      4 C4          3.8100   -0.3185    1.9096 C.ar      1 <0>         0.0000
      5 C5          4.8959   -5.8280    0.5748 C.ar      1 <0>         0.0000
      6 C6          6.4283   -4.8650    2.2453 C.ar      1 <0>         0.0000
      7 C7          1.2310   -0.7812    0.8883 C.ar      1 <0>         0.0000
      8 C8          2.7202    0.2430    2.5620 C.ar      1 <0>         0.0000
      9 C9          5.7875   -6.0471    1.6991 C.ar      1 <0>         0.0000
     10 C10         1.3675    0.0408    2.0768 C.ar      1 <0>         0.0000
     11 C11         5.3353   -3.4350    0.6080 C.ar      1 <0>         0.0000
     12 C12         3.6396   -1.0995    0.7530 C.ar      1 <0>         0.0000
     13 C13         4.2173   -7.0408   -0.0116 C.3       1 <0>         0.0000
     14 C14         7.3615   -5.0660    3.4130 C.3       1 <0>         0.0000
     15 C15        -0.1652   -1.0064    0.3636 C.3       1 <0>         0.0000
     16 C16         2.8888    1.0958    3.7946 C.3       1 <0>         0.0000
     17 O1          6.0009   -7.2152    2.1773 O.3       1 <0>         0.0000
     18 O2          0.3542    0.5623    2.6598 O.3       1 <0>         0.0000
     19 O3          4.6824   -1.9907   -1.4929 O.2       1 <0>         0.0000
     20 O4          6.2277   -0.9791    0.2850 O.2       1 <0>         0.0000
     21 S1          5.0452   -1.8163   -0.0594 S.o2      1 <0>         0.0000
     22 H1          4.0296   -4.4123   -0.7965 H         1 <0>         0.0000
     23 H2          6.6974   -2.7321    2.1170 H         1 <0>         0.0000
     24 H3          2.2235   -1.9257   -0.6416 H         1 <0>         0.0000
     25 H4          4.8196   -0.1443    2.2768 H         1 <0>         0.0000
     26 H5          4.9543   -7.7777   -0.3592 H         1 <0>         0.0000
     27 H6          3.6133   -7.5582    0.7458 H         1 <0>         0.0000
     28 H7          3.5684   -6.7657   -0.8524 H         1 <0>         0.0000
     29 H8          6.8390   -5.5331    4.2586 H         1 <0>         0.0000
     30 H9          8.1790   -5.7522    3.1525 H         1 <0>         0.0000
     31 H10         7.7917   -4.1135    3.7467 H         1 <0>         0.0000
     32 H11        -0.7989   -1.4826    1.1237 H         1 <0>         0.0000
     33 H12        -0.6555   -0.0535    0.1214 H         1 <0>         0.0000
     34 H13        -0.1559   -1.6377   -0.5336 H         1 <0>         0.0000
     35 H14         2.4774    2.1024    3.6384 H         1 <0>         0.0000
     36 H15         2.3326    0.6753    4.6431 H         1 <0>         0.0000
     37 H16         3.9458    1.1849    4.0748 H         1 <0>         0.0000
@<TRIPOS>BOND
     1    1    5 ar
     2    1   11 ar
     3    1   22 1
     4    2    6 ar
     5    2   11 ar
     6    2   23 1
     7    3    7 ar
     8    3   12 ar
     9    3   24 1
    10    4    8 ar
    11    4   12 ar
    12    4   25 1
    13    5    9 ar
    14    5   13 1
    15    6    9 ar
    16    6   14 1
    17    7   10 ar
    18    7   15 1
    19    8   10 ar
    20    8   16 1
    21    9   17 1
    22   10   18 1
    23   11   21 1
    24   12   21 1
    25   13   26 1
    26   13   27 1
    27   13   28 1
    28   14   29 1
    29   14   30 1
    30   14   31 1
    31   15   32 1
    32   15   33 1
    33   15   34 1
    34   16   35 1
    35   16   36 1
    36   16   37 1
    37   19   21 2
    38   20   21 2
