@<TRIPOS>MOLECULE
*****
   15    15     0     0     0
SMALL
NO_CHARGES

@<TRIPOS>ATOM
      1 C1          2.2910   -1.1830   -0.6390 C.2       1 <0>         0.0000
      2 C2          4.2820    0.3600   -1.3120 C.3       1 <0>         0.0000
      3 C3          4.8630   -0.7700   -0.4800 C.3       1 <0>         0.0000
      4 C4          3.4680   -0.2830   -0.2310 C.3       1 <0>         0.0000
      5 C5          0.0060   -1.9560   -0.1740 C.3       1 <0>         0.0000
      6 O1          2.3080   -1.9210   -1.6050 O.2       1 <0>         0.0000
      7 O2          1.1750   -1.1440    0.1250 O.3       1 <0>         0.0000
      8 F1          3.2880    0.4570    0.9010 F         1 <0>         0.0000
      9 H1          4.6510    1.3560   -1.1060 H         1 <0>         0.0000
     10 H2          4.0230    0.1150   -2.3340 H         1 <0>         0.0000
     11 H3          4.9670   -1.7250   -0.9790 H         1 <0>         0.0000
     12 H4          5.6040   -0.5000    0.2600 H         1 <0>         0.0000
     13 H5          0.3000   -3.0070   -0.1510 H         1 <0>         0.0000
     14 H6         -0.7480   -1.7540    0.5860 H         1 <0>         0.0000
     15 H7         -0.3620   -1.6810   -1.1630 H         1 <0>         0.0000
@<TRIPOS>BOND
     1    1    4 1
     2    1    6 2
     3    1    7 1
     4    2    3 1
     5    2    4 1
     6    2    9 1
     7    2   10 1
     8    3    4 1
     9    3   11 1
    10    3   12 1
    11    4    8 1
    12    5    7 1
    13    5   13 1
    14    5   14 1
    15    5   15 1
