@<TRIPOS>MOLECULE
*****
   33    35     0     0     0
SMALL
NO_CHARGES

@<TRIPOS>ATOM
      1 C1          5.1463    2.5391    3.1709 C.ar      1 <0>         0.0000
      2 C2          2.0307    2.9954    1.4622 C.2       1 <0>         0.0000
      3 C3          5.3190    1.1657    3.0881 C.ar      1 <0>         0.0000
      4 C4          2.3790    4.2750    1.8284 C.2       1 <0>         0.0000
      5 C5          3.0651    2.1487    1.9379 C.ar      1 <0>         0.0000
      6 C6          3.9803    2.9844    2.5676 C.ar      1 <0>         0.0000
      7 C7          3.3354    0.7797    1.9112 C.ar      1 <0>         0.0000
      8 C8          1.0217   -2.1064    1.4977 C.3       1 <0>         0.0000
      9 C9          0.7997   -0.5839   -0.4748 C.3       1 <0>         0.0000
     10 C10         2.3728   -1.4741    1.8274 C.3       1 <0>         0.0000
     11 C11         2.1496    0.0481   -0.1357 C.3       1 <0>         0.0000
     12 C12         0.7229   -2.0394   -0.0036 C.3       1 <0>         0.0000
     13 C13        -0.6461   -2.6402   -0.3129 C.3       1 <0>         0.0000
     14 N1          4.4651    0.2985    2.4890 N.ar      1 <0>         0.0000
     15 N2          2.4477   -0.1081    1.2917 N.pl3     1 <0>         0.0000
     16 O1          3.5605    4.2790    2.4996 O.3       1 <0>         0.0000
     17 O2         -0.8573   -2.5812   -1.7114 O.3       1 <0>         0.0000
     18 H1          5.8512    3.1972    3.6590 H         1 <0>         0.0000
     19 H2          1.1404    2.7111    0.9196 H         1 <0>         0.0000
     20 H3          6.1972    0.7007    3.5272 H         1 <0>         0.0000
     21 H4          1.9163    5.2417    1.6931 H         1 <0>         0.0000
     22 H5          1.0227   -3.1509    1.8319 H         1 <0>         0.0000
     23 H6          0.2330   -1.5942    2.0641 H         1 <0>         0.0000
     24 H7         -0.0026    0.0058   -0.0123 H         1 <0>         0.0000
     25 H8          0.6423   -0.5339   -1.5590 H         1 <0>         0.0000
     26 H9          2.4986   -1.4621    2.9173 H         1 <0>         0.0000
     27 H10         3.1830   -2.0838    1.4068 H         1 <0>         0.0000
     28 H11         2.9408   -0.4205   -0.7353 H         1 <0>         0.0000
     29 H12         2.1167    1.1116   -0.4040 H         1 <0>         0.0000
     30 H13         1.4812   -2.6245   -0.5406 H         1 <0>         0.0000
     31 H14        -1.4243   -2.0704    0.1940 H         1 <0>         0.0000
     32 H15        -0.6778   -3.6792    0.0136 H         1 <0>         0.0000
     33 H16        -1.7326   -2.9680   -1.8849 H         1 <0>         0.0000
@<TRIPOS>BOND
     1    1    3 ar
     2    1    6 ar
     3    1   18 1
     4    2    4 2
     5    2    5 1
     6    2   19 1
     7    3   14 ar
     8    3   20 1
     9    4   16 1
    10    4   21 1
    11    5    6 ar
    12    5    7 ar
    13    6   16 1
    14    7   14 ar
    15    7   15 1
    16    8   10 1
    17    8   12 1
    18    8   22 1
    19    8   23 1
    20    9   11 1
    21    9   12 1
    22    9   24 1
    23    9   25 1
    24   10   15 1
    25   10   26 1
    26   10   27 1
    27   11   15 1
    28   11   28 1
    29   11   29 1
    30   12   13 1
    31   12   30 1
    32   13   17 1
    33   13   31 1
    34   13   32 1
    35   17   33 1
