@<TRIPOS>MOLECULE
*****
   34    37     0     0     0
SMALL
NO_CHARGES

@<TRIPOS>ATOM
      1 C1          2.5518   -2.2632   -2.5700 C.ar      1 <0>         0.0000
      2 C2          3.5086   -1.4555   -1.9425 C.ar      1 <0>         0.0000
      3 C3          2.0835   -3.4381   -1.9679 C.ar      1 <0>         0.0000
      4 C4          4.0216   -1.8039   -0.6846 C.ar      1 <0>         0.0000
      5 C5         -1.9584   -8.2951   -2.2571 C.ar      1 <0>         0.0000
      6 C6         -1.6183   -7.2789   -4.8848 C.ar      1 <0>         0.0000
      7 C7          2.5973   -3.7911   -0.7168 C.ar      1 <0>         0.0000
      8 C8         -0.9024   -7.3758   -2.5246 C.ar      1 <0>         0.0000
      9 C9         -2.8033   -8.6552   -3.2794 C.ar      1 <0>         0.0000
     10 C10        -2.6390   -8.1540   -4.5711 C.ar      1 <0>         0.0000
     11 C11         3.5468   -2.9682   -0.1058 C.ar      1 <0>         0.0000
     12 C12        -0.7525   -6.8962   -3.8433 C.ar      1 <0>         0.0000
     13 C13         2.3061   -4.9465    0.1795 C.2       1 <0>         0.0000
     14 C14        -0.0679   -7.0463   -1.3687 C.2       1 <0>         0.0000
     15 C15        -4.4803   -9.4304   -4.5487 C.3       1 <0>         0.0000
     16 N1          2.9307   -5.0124    1.3239 N.2       1 <0>         0.0000
     17 N2          0.7441   -6.0498   -1.2821 N.2       1 <0>         0.0000
     18 N3          1.4148   -5.9390   -0.1037 N.pl3     1 <0>         0.0000
     19 O1          5.3615   -4.1479    1.4926 O.2       1 <0>         0.0000
     20 O2          3.5012   -2.8212    2.5762 O.2       1 <0>         0.0000
     21 O3         -3.8634   -9.5311   -3.2534 O.3       1 <0>         0.0000
     22 O4         -3.5860   -8.6888   -5.4037 O.3       1 <0>         0.0000
     23 S1          3.9746   -3.6832    1.4931 S.o2      1 <0>         0.0000
     24 Cl1         0.5535   -5.8250   -4.3051 Cl        1 <0>         0.0000
     25 H1          2.1630   -1.9752   -3.5427 H         1 <0>         0.0000
     26 H2          3.8556   -0.5496   -2.4318 H         1 <0>         0.0000
     27 H3          1.3463   -4.0607   -2.4550 H         1 <0>         0.0000
     28 H4          4.7595   -1.1858   -0.1821 H         1 <0>         0.0000
     29 H5         -2.0948   -8.6946   -1.2568 H         1 <0>         0.0000
     30 H6         -1.4771   -6.9044   -5.8922 H         1 <0>         0.0000
     31 H7         -0.1981   -7.7205   -0.5113 H         1 <0>         0.0000
     32 H8         -4.6233  -10.4313   -4.9610 H         1 <0>         0.0000
     33 H9         -5.4277   -8.8849   -4.4610 H         1 <0>         0.0000
     34 H10         1.3091   -6.6495    0.6238 H         1 <0>         0.0000
@<TRIPOS>BOND
     1    1    2 ar
     2    1    3 ar
     3    1   25 1
     4    2    4 ar
     5    2   26 1
     6    3    7 ar
     7    3   27 1
     8    4   11 ar
     9    4   28 1
    10    5    8 ar
    11    5    9 ar
    12    5   29 1
    13    6   10 ar
    14    6   12 ar
    15    6   30 1
    16    7   11 ar
    17    7   13 1
    18    8   12 ar
    19    8   14 1
    20    9   10 ar
    21    9   21 1
    22   10   22 1
    23   11   23 1
    24   12   24 1
    25   13   16 2
    26   13   18 1
    27   14   17 2
    28   14   31 1
    29   15   21 1
    30   15   22 1
    31   15   32 1
    32   15   33 1
    33   16   23 1
    34   17   18 1
    35   18   34 1
    36   19   23 2
    37   20   23 2
