@<TRIPOS>MOLECULE
*****
   43    46     0     0     0
SMALL
NO_CHARGES

@<TRIPOS>ATOM
      1 C1          5.9757   -2.8357   -4.8787 C.ar      1 <0>         0.0000
      2 C2          7.0159   -3.1973   -5.7096 C.ar      1 <0>         0.0000
      3 C3          8.4359   -1.4554   -4.7494 C.ar      1 <0>         0.0000
      4 C4          6.3893    0.2834   -2.1544 C.ar      1 <0>         0.0000
      5 C5          7.3678   -1.0814   -3.8954 C.ar      1 <0>         0.0000
      6 C6          6.1179   -1.7704   -3.9494 C.ar      1 <0>         0.0000
      7 C7          7.4724   -0.0193   -2.9498 C.ar      1 <0>         0.0000
      8 C8          8.2347   -2.4929   -5.6263 C.ar      1 <0>         0.0000
      9 C9          5.1892   -0.4713   -2.2899 C.ar      1 <0>         0.0000
     10 C10        -0.9194   -1.4889   -3.0717 C.3       1 <0>         0.0000
     11 C11        -1.2821   -0.8180   -0.7985 C.3       1 <0>         0.0000
     12 C12         1.8084   -0.7673   -0.4856 C.3       1 <0>         0.0000
     13 C13         2.1141   -1.3864   -2.4802 C.3       1 <0>         0.0000
     14 C14        -2.1950   -0.7515   -3.4660 C.3       1 <0>         0.0000
     15 C15        -2.5506   -0.0952   -1.2409 C.3       1 <0>         0.0000
     16 C16         0.9159   -1.5079   -1.5099 C.3       1 <0>         0.0000
     17 C17         4.0023   -0.0833   -1.4290 C.3       1 <0>         0.0000
     18 N1          5.0508   -1.4572   -3.1532 N.ar      1 <0>         0.0000
     19 N2         -0.3159   -0.8477   -1.8998 N.3       1 <0>         0.0000
     20 N3          2.9888   -1.1072   -1.3139 N.3       1 <0>         0.0000
     21 O1         -3.1301   -0.7131   -2.3887 O.3       1 <0>         0.0000
     22 O2          8.6671    0.6381   -2.8917 O.3       1 <0>         0.0000
     23 F1          9.2421   -2.8703   -6.4564 F         1 <0>         0.0000
     24 H1          5.0231   -3.3553   -4.9106 H         1 <0>         0.0000
     25 H2          6.9219   -4.0095   -6.4241 H         1 <0>         0.0000
     26 H3          9.3872   -0.9366   -4.7122 H         1 <0>         0.0000
     27 H4          6.4421    1.0860   -1.4205 H         1 <0>         0.0000
     28 H5         -1.1588   -2.5511   -2.8735 H         1 <0>         0.0000
     29 H6         -0.2079   -1.4556   -3.9042 H         1 <0>         0.0000
     30 H7         -0.8399   -0.2873    0.0523 H         1 <0>         0.0000
     31 H8         -1.5432   -1.8393   -0.4611 H         1 <0>         0.0000
     32 H9          1.5735    0.3099   -0.4818 H         1 <0>         0.0000
     33 H10         1.8504   -1.1411    0.5434 H         1 <0>         0.0000
     34 H11         2.4132   -2.2564   -3.0663 H         1 <0>         0.0000
     35 H12         1.9953   -0.5155   -3.1440 H         1 <0>         0.0000
     36 H13        -1.9447    0.2736   -3.7799 H         1 <0>         0.0000
     37 H14        -2.6971   -1.2620   -4.2920 H         1 <0>         0.0000
     38 H15        -3.3099   -0.1304   -0.4550 H         1 <0>         0.0000
     39 H16        -2.3152    0.9574   -1.4621 H         1 <0>         0.0000
     40 H17         0.7479   -2.5569   -1.2098 H         1 <0>         0.0000
     41 H18         4.3619    0.1522   -0.4194 H         1 <0>         0.0000
     42 H19         3.5886    0.8639   -1.8371 H         1 <0>         0.0000
     43 H20         8.6180    1.3335   -2.2156 H         1 <0>         0.0000
@<TRIPOS>BOND
     1    1    2 ar
     2    1    6 ar
     3    1   24 1
     4    2    8 ar
     5    2   25 1
     6    3    5 ar
     7    3    8 ar
     8    3   26 1
     9    4    7 ar
    10    4    9 ar
    11    4   27 1
    12    5    6 ar
    13    5    7 ar
    14    6   18 ar
    15    7   22 1
    16    8   23 1
    17    9   17 1
    18    9   18 ar
    19   10   14 1
    20   10   19 1
    21   10   28 1
    22   10   29 1
    23   11   15 1
    24   11   19 1
    25   11   30 1
    26   11   31 1
    27   12   16 1
    28   12   20 1
    29   12   32 1
    30   12   33 1
    31   13   16 1
    32   13   20 1
    33   13   34 1
    34   13   35 1
    35   14   21 1
    36   14   36 1
    37   14   37 1
    38   15   21 1
    39   15   38 1
    40   15   39 1
    41   16   19 1
    42   16   40 1
    43   17   20 1
    44   17   41 1
    45   17   42 1
    46   22   43 1
