@<TRIPOS>MOLECULE
*****
   21    21     0     0     0
SMALL
NO_CHARGES

@<TRIPOS>ATOM
      1 C1          0.6048   -1.9387    0.0673 C.ar      1 <0>         0.0000
      2 C2         -0.2271   -1.0883    0.7980 C.ar      1 <0>         0.0000
      3 C3          1.9950   -1.7747    0.0874 C.ar      1 <0>         0.0000
      4 C4          1.7101    0.1202    1.5972 C.ar      1 <0>         0.0000
      5 C5          0.3214   -0.0508    1.5685 C.ar      1 <0>         0.0000
      6 C6          2.5146   -0.7423    0.8580 C.ar      1 <0>         0.0000
      7 C7         -1.2770    0.1364    3.5004 C.2       1 <0>         0.0000
      8 C8         -0.5848    0.8665    2.3697 C.3       1 <0>         0.0000
      9 N1         -2.4774   -0.3324    3.4774 N.2       1 <0>         0.0000
     10 N2         -0.5061   -0.1172    4.6351 N.pl3     1 <0>         0.0000
     11 O1         -3.0845   -0.1520    2.1956 O.3       1 <0>         0.0000
     12 F1          3.8630   -0.5621    0.8949 F         1 <0>         0.0000
     13 H1          0.1717   -2.7392   -0.5265 H         1 <0>         0.0000
     14 H2         -1.3044   -1.2235    0.7834 H         1 <0>         0.0000
     15 H3          2.6613   -2.4229   -0.4733 H         1 <0>         0.0000
     16 H4          2.1747    0.9091    2.1823 H         1 <0>         0.0000
     17 H5          0.0030    1.6889    2.7920 H         1 <0>         0.0000
     18 H6         -1.3504    1.2995    1.7235 H         1 <0>         0.0000
     19 H7          0.0726    0.6621    4.9307 H         1 <0>         0.0000
     20 H8         -1.0482   -0.5053    5.4017 H         1 <0>         0.0000
     21 H9         -3.9808   -0.4862    2.3562 H         1 <0>         0.0000
@<TRIPOS>BOND
     1    1    2 ar
     2    1    3 ar
     3    1   13 1
     4    2    5 ar
     5    2   14 1
     6    3    6 ar
     7    3   15 1
     8    4    5 ar
     9    4    6 ar
    10    4   16 1
    11    5    8 1
    12    6   12 1
    13    7    8 1
    14    7    9 2
    15    7   10 1
    16    8   17 1
    17    8   18 1
    18    9   11 1
    19   10   19 1
    20   10   20 1
    21   11   21 1
