@<TRIPOS>MOLECULE
*****
   23    24     0     0     0
SMALL
NO_CHARGES

@<TRIPOS>ATOM
      1 C1          3.0796   -0.9961   -2.9916 C.ar      1 <0>         0.0000
      2 C2          2.7248   -3.2325   -3.4045 C.ar      1 <0>         0.0000
      3 C3          0.3430   -3.9008   -0.7655 C.2       1 <0>         0.0000
      4 C4          1.5536   -2.1418   -1.5356 C.ar      1 <0>         0.0000
      5 C5          2.2439   -0.9594   -1.8721 C.ar      1 <0>         0.0000
      6 C6          0.5669   -2.5462   -0.5545 C.2       1 <0>         0.0000
      7 C7          1.8435   -3.2871   -2.3223 C.ar      1 <0>         0.0000
      8 C8         -0.2208   -1.6964    0.3570 C.2       1 <0>         0.0000
      9 C9          2.2170    0.3021   -1.0758 C.2       1 <0>         0.0000
     10 C10        -1.0207   -2.3845    1.4524 C.3       1 <0>         0.0000
     11 N1          3.3215   -2.0904   -3.7434 N.ar      1 <0>         0.0000
     12 N2          1.1009   -4.3470   -1.8140 N.pl3     1 <0>         0.0000
     13 O1         -0.2574   -0.4774    0.2217 O.2       1 <0>         0.0000
     14 O2          2.0956    1.4162   -1.5448 O.2       1 <0>         0.0000
     15 O3          2.4544    0.0712    0.2402 O.3       1 <0>         0.0000
     16 H1          3.6014   -0.0894   -3.2873 H         1 <0>         0.0000
     17 H2          2.9479   -4.1119   -4.0084 H         1 <0>         0.0000
     18 H3         -0.3323   -4.5722   -0.2520 H         1 <0>         0.0000
     19 H4         -0.3703   -2.9978    2.0849 H         1 <0>         0.0000
     20 H5         -1.7849   -3.0423    1.0233 H         1 <0>         0.0000
     21 H6         -1.5143   -1.6253    2.0603 H         1 <0>         0.0000
     22 H7          1.0818   -5.2847   -2.1915 H         1 <0>         0.0000
     23 H8          2.3440    0.9313    0.6891 H         1 <0>         0.0000
@<TRIPOS>BOND
     1    1    5 ar
     2    1   11 ar
     3    1   16 1
     4    2    7 ar
     5    2   11 ar
     6    2   17 1
     7    3    6 2
     8    3   12 1
     9    3   18 1
    10    4    5 ar
    11    4    6 1
    12    4    7 ar
    13    5    9 1
    14    6    8 1
    15    7   12 1
    16    8   10 1
    17    8   13 2
    18    9   14 2
    19    9   15 1
    20   10   19 1
    21   10   20 1
    22   10   21 1
    23   12   22 1
    24   15   23 1
