@<TRIPOS>MOLECULE
*****
   41    43     0     0     0
SMALL
NO_CHARGES

@<TRIPOS>ATOM
      1 C1          0.0962   -5.6778    5.5962 C.ar      1 <0>         0.0000
      2 C2          0.4176   -6.2041    4.3391 C.ar      1 <0>         0.0000
      3 C3          0.2934   -4.3172    5.8449 C.ar      1 <0>         0.0000
      4 C4          0.9324   -5.3757    3.3409 C.ar      1 <0>         0.0000
      5 C5          0.8119   -3.4913    4.8411 C.ar      1 <0>         0.0000
      6 C6          1.1376   -4.0097    3.5822 C.ar      1 <0>         0.0000
      7 C7          0.7679   -2.9138    1.3106 C.2       1 <0>         0.0000
      8 C8          1.8114    0.2278    1.3074 C.3       1 <0>         0.0000
      9 C9         -0.5358   -0.4668   -0.6820 C.3       1 <0>         0.0000
     10 C10         2.2562   -1.0458    0.5645 C.3       1 <0>         0.0000
     11 C11         0.2811   -1.7634   -0.7832 C.3       1 <0>         0.0000
     12 C12         0.0051    2.0309    1.2963 C.3       1 <0>         0.0000
     13 C13         1.0669    1.2817    0.4580 C.3       1 <0>         0.0000
     14 C14         0.3444    0.7775   -0.8059 C.3       1 <0>         0.0000
     15 C15         1.7084   -3.1106    2.5125 C.3       1 <0>         0.0000
     16 N1         -0.8533    2.8050    0.3783 N.pl3     1 <0>         0.0000
     17 N2          1.1666   -1.9982    0.3562 N.am      1 <0>         0.0000
     18 O1         -0.2621   -3.5720    1.1855 O.2       1 <0>         0.0000
     19 O2         -1.9579    1.9724   -1.7956 O.2       1 <0>         0.0000
     20 O3          0.2639    3.2003   -1.9317 O.2       1 <0>         0.0000
     21 S1         -0.6346    2.2778   -1.2352 S.o2      1 <0>         0.0000
     22 H1         -0.3050   -6.3235    6.3731 H         1 <0>         0.0000
     23 H2          0.2622   -7.2608    4.1366 H         1 <0>         0.0000
     24 H3          0.0467   -3.8982    6.8172 H         1 <0>         0.0000
     25 H4          1.1620   -5.7872    2.3617 H         1 <0>         0.0000
     26 H5          0.9642   -2.4325    5.0431 H         1 <0>         0.0000
     27 H6          1.1803   -0.0850    2.1465 H         1 <0>         0.0000
     28 H7          2.6928    0.7063    1.7484 H         1 <0>         0.0000
     29 H8         -1.2697   -0.4592   -1.4941 H         1 <0>         0.0000
     30 H9         -1.1035   -0.4648    0.2540 H         1 <0>         0.0000
     31 H10         2.6794   -0.7941   -0.4140 H         1 <0>         0.0000
     32 H11         3.0591   -1.5300    1.1211 H         1 <0>         0.0000
     33 H12        -0.3969   -2.6135   -0.8412 H         1 <0>         0.0000
     34 H13         0.8880   -1.7459   -1.6975 H         1 <0>         0.0000
     35 H14        -0.5951    1.3070    1.8606 H         1 <0>         0.0000
     36 H15         0.4908    2.7029    2.0099 H         1 <0>         0.0000
     37 H16         1.7971    2.0201    0.1119 H         1 <0>         0.0000
     38 H17         1.0394    0.6737   -1.6432 H         1 <0>         0.0000
     39 H18         1.9637   -2.1430    2.9525 H         1 <0>         0.0000
     40 H19         2.6487   -3.5282    2.1296 H         1 <0>         0.0000
     41 H20        -1.8454    2.7557    0.5981 H         1 <0>         0.0000
@<TRIPOS>BOND
     1    1    3 ar
     2    1    2 ar
     3    1   22 1
     4    2    4 ar
     5    2   23 1
     6    3    5 ar
     7    3   24 1
     8    4    6 ar
     9    4   25 1
    10    5    6 ar
    11    5   26 1
    12    6   15 1
    13    7   15 1
    14    7   17 am
    15    7   18 2
    16    8   10 1
    17    8   13 1
    18    8   27 1
    19    8   28 1
    20    9   11 1
    21    9   14 1
    22    9   29 1
    23    9   30 1
    24   10   17 1
    25   10   31 1
    26   10   32 1
    27   11   17 1
    28   11   33 1
    29   11   34 1
    30   12   13 1
    31   12   16 1
    32   12   35 1
    33   12   36 1
    34   13   14 1
    35   13   37 1
    36   14   21 1
    37   14   38 1
    38   15   39 1
    39   15   40 1
    40   16   21 1
    41   16   41 1
    42   19   21 2
    43   20   21 2
