@<TRIPOS>MOLECULE
*****
   43    45     0     0     0
SMALL
NO_CHARGES

@<TRIPOS>ATOM
      1 C1         -1.4498   -7.0298   -0.0499 C.ar      1 <0>         0.0000
      2 C2         -0.0607   -7.1773    0.1393 C.ar      1 <0>         0.0000
      3 C3         -2.1316   -5.9527    0.5167 C.ar      1 <0>         0.0000
      4 C4          0.6811   -6.2531    0.8797 C.ar      1 <0>         0.0000
      5 C5         -1.3966   -5.0345    1.2703 C.ar      1 <0>         0.0000
      6 C6         -0.0155   -5.1747    1.4306 C.ar      1 <0>         0.0000
      7 C7         -1.8161   -3.8204    1.9961 C.2       1 <0>         0.0000
      8 C8         -1.1294   -0.8478    2.2166 C.2       1 <0>         0.0000
      9 C9         -0.8314    1.1008   -0.5962 C.3       1 <0>         0.0000
     10 C10        -1.7939    0.1221    0.0814 C.3       1 <0>         0.0000
     11 C11        -0.1076   -1.6499    0.0574 C.3       1 <0>         0.0000
     12 C12         0.9397   -0.7178   -0.5878 C.3       1 <0>         0.0000
     13 C13         0.2327    0.3753   -1.4328 C.3       1 <0>         0.0000
     14 C14         1.8993   -0.1669    0.4776 C.3       1 <0>         0.0000
     15 C15         1.2169    1.3737   -2.0494 C.3       1 <0>         0.0000
     16 C16        -0.4646   -1.9716    3.0434 C.3       1 <0>         0.0000
     17 N1          0.5052   -4.0829    2.1661 N.pl3     1 <0>         0.0000
     18 N2         -0.6442   -3.3438    2.5876 N.am      1 <0>         0.0000
     19 N3         -1.0567   -0.8797    0.8566 N.am      1 <0>         0.0000
     20 O1         -2.9122   -3.2788    2.0807 O.2       1 <0>         0.0000
     21 O2         -1.6977    0.0481    2.8431 O.2       1 <0>         0.0000
     22 O3         -0.5065   -0.2717   -2.4959 O.3       1 <0>         0.0000
     23 H1         -1.9886   -7.7656   -0.6400 H         1 <0>         0.0000
     24 H2          0.4491   -8.0262   -0.3084 H         1 <0>         0.0000
     25 H3         -3.2027   -5.8212    0.3920 H         1 <0>         0.0000
     26 H4          1.7543   -6.3657    1.0077 H         1 <0>         0.0000
     27 H5         -1.3930    1.7727   -1.2539 H         1 <0>         0.0000
     28 H6         -0.3415    1.7159    0.1649 H         1 <0>         0.0000
     29 H7         -2.4690    0.6428    0.7582 H         1 <0>         0.0000
     30 H8         -2.3834   -0.4054   -0.6755 H         1 <0>         0.0000
     31 H9         -0.6619   -2.1840   -0.7215 H         1 <0>         0.0000
     32 H10         0.4089   -2.3851    0.6686 H         1 <0>         0.0000
     33 H11         1.5290   -1.3330   -1.2845 H         1 <0>         0.0000
     34 H12         1.3804    0.4682    1.2018 H         1 <0>         0.0000
     35 H13         2.7087    0.4197    0.0355 H         1 <0>         0.0000
     36 H14         2.3594   -0.9936    1.0303 H         1 <0>         0.0000
     37 H15         2.0062    0.8547   -2.6089 H         1 <0>         0.0000
     38 H16         1.6985    1.9979   -1.2921 H         1 <0>         0.0000
     39 H17         0.6806    2.0290   -2.7421 H         1 <0>         0.0000
     40 H18        -0.8886   -1.8561    4.0421 H         1 <0>         0.0000
     41 H19         0.6110   -1.7870    3.1078 H         1 <0>         0.0000
     42 H20         1.0362   -4.3815    2.9859 H         1 <0>         0.0000
     43 H21         0.1339   -0.7141   -3.0760 H         1 <0>         0.0000
@<TRIPOS>BOND
     1    1    2 ar
     2    1    3 ar
     3    1   23 1
     4    2    4 ar
     5    2   24 1
     6    3    5 ar
     7    3   25 1
     8    4    6 ar
     9    4   26 1
    10    5    6 ar
    11    5    7 1
    12    6   17 1
    13    7   18 am
    14    7   20 2
    15    8   16 1
    16    8   19 am
    17    8   21 2
    18    9   10 1
    19    9   13 1
    20    9   27 1
    21    9   28 1
    22   10   19 1
    23   10   29 1
    24   10   30 1
    25   11   12 1
    26   11   19 1
    27   11   31 1
    28   11   32 1
    29   12   13 1
    30   12   14 1
    31   12   33 1
    32   13   15 1
    33   13   22 1
    34   14   34 1
    35   14   35 1
    36   14   36 1
    37   15   37 1
    38   15   38 1
    39   15   39 1
    40   16   18 1
    41   16   40 1
    42   16   41 1
    43   17   18 1
    44   17   42 1
    45   22   43 1
