@<TRIPOS>MOLECULE
*****
   25    26     0     0     0
SMALL
NO_CHARGES

@<TRIPOS>ATOM
      1 C1          6.9328    1.4643   -0.6734 C.ar      1 <0>         0.0000
      2 C2          6.5675    2.7712   -1.0068 C.ar      1 <0>         0.0000
      3 C3          5.9871    0.6419   -0.0618 C.ar      1 <0>         0.0000
      4 C4          1.3178   -0.3415    3.0328 C.ar      1 <0>         0.0000
      5 C5          0.3505   -0.6744    0.8670 C.ar      1 <0>         0.0000
      6 C6          5.2672    3.1996   -0.7141 C.ar      1 <0>         0.0000
      7 C7          0.3892   -1.2489    3.5347 C.ar      1 <0>         0.0000
      8 C8          1.3042   -0.0376    1.6638 C.ar      1 <0>         0.0000
      9 C9          4.7113    1.1647    0.1880 C.ar      1 <0>         0.0000
     10 C10        -0.5296   -1.5680    1.4867 C.ar      1 <0>         0.0000
     11 C11         3.6736    0.2950    0.8497 C.2       1 <0>         0.0000
     12 C12         2.2966    0.9216    1.0654 C.3       1 <0>         0.0000
     13 N1          4.3512    2.4198   -0.1306 N.ar      1 <0>         0.0000
     14 N2         -0.5340   -1.8613    2.7716 N.ar      1 <0>         0.0000
     15 O1          3.9446   -0.8447    1.1937 O.2       1 <0>         0.0000
     16 Br1        -1.8526   -2.4500    0.3892 Br        1 <0>         0.0000
     17 H1          7.9330    1.0960   -0.8858 H         1 <0>         0.0000
     18 H2          7.2692    3.4491   -1.4841 H         1 <0>         0.0000
     19 H3          6.2048   -0.3817    0.2245 H         1 <0>         0.0000
     20 H4          2.0449    0.1163    3.6977 H         1 <0>         0.0000
     21 H5          0.2884   -0.4876   -0.1999 H         1 <0>         0.0000
     22 H6          4.9515    4.2119   -0.9609 H         1 <0>         0.0000
     23 H7          0.3749   -1.5039    4.5924 H         1 <0>         0.0000
     24 H8          1.9501    1.3197    0.1072 H         1 <0>         0.0000
     25 H9          2.4354    1.8022    1.7028 H         1 <0>         0.0000
@<TRIPOS>BOND
     1    1    2 ar
     2    1    3 ar
     3    1   17 1
     4    2    6 ar
     5    2   18 1
     6    3    9 ar
     7    3   19 1
     8    4    7 ar
     9    4    8 ar
    10    4   20 1
    11    5    8 ar
    12    5   10 ar
    13    5   21 1
    14    6   13 ar
    15    6   22 1
    16    7   14 ar
    17    7   23 1
    18    8   12 1
    19    9   11 1
    20    9   13 ar
    21   10   14 ar
    22   10   16 1
    23   11   12 1
    24   11   15 2
    25   12   24 1
    26   12   25 1
