@<TRIPOS>MOLECULE
*****
   39    42     0     0     0
SMALL
NO_CHARGES

@<TRIPOS>ATOM
      1 C1          2.9872   -4.4201    5.6013 C.ar      1 <0>         0.0000
      2 C2          3.9146    2.6663   -3.8228 C.ar      1 <0>         0.0000
      3 C3          3.7960   -3.4808    4.9952 C.ar      1 <0>         0.0000
      4 C4          3.4772    1.6724   -2.9470 C.ar      1 <0>         0.0000
      5 C5          1.5804   -4.3716    5.4424 C.ar      1 <0>         0.0000
      6 C6          3.3418   -0.4838    2.8040 C.ar      1 <0>         0.0000
      7 C7          3.0021    3.6422   -4.2364 C.ar      1 <0>         0.0000
      8 C8          1.3238    2.7089   -2.9893 C.ar      1 <0>         0.0000
      9 C9          3.2152   -2.4575    4.2033 C.ar      1 <0>         0.0000
     10 C10         2.1468    1.6795   -2.5080 C.ar      1 <0>         0.0000
     11 C11         1.7983   -2.3827    4.0221 C.ar      1 <0>         0.0000
     12 C12         3.9834   -1.4480    3.5539 C.ar      1 <0>         0.0000
     13 C13         1.0188   -3.3783    4.6760 C.ar      1 <0>         0.0000
     14 C14         1.9264   -0.5213    2.6847 C.ar      1 <0>         0.0000
     15 C15         0.5199    0.9640   -0.5471 C.3       1 <0>         0.0000
     16 C16         2.4678    0.1856   -0.3600 C.3       1 <0>         0.0000
     17 C17         1.6190    0.6179   -1.5858 C.3       1 <0>         0.0000
     18 C18         1.2221    0.5011    1.8173 C.3       1 <0>         0.0000
     19 N1          1.7253    3.6711   -3.8314 N.ar      1 <0>         0.0000
     20 N2          1.1732   -1.4316    3.2753 N.ar      1 <0>         0.0000
     21 N3          1.2152    0.0860    0.4206 N.3       1 <0>         0.0000
     22 O1          5.3365   -1.4957    3.7235 O.3       1 <0>         0.0000
     23 F1         -0.3210   -3.3379    4.5310 F         1 <0>         0.0000
     24 H1          3.4238   -5.2077    6.2087 H         1 <0>         0.0000
     25 H2          4.9404    2.6899   -4.1805 H         1 <0>         0.0000
     26 H3          4.8736   -3.5105    5.1143 H         1 <0>         0.0000
     27 H4          4.1617    0.8983   -2.6059 H         1 <0>         0.0000
     28 H5          0.9341   -5.1052    5.9148 H         1 <0>         0.0000
     29 H6          3.9047    0.3047    2.3086 H         1 <0>         0.0000
     30 H7          3.3091    4.4331   -4.9192 H         1 <0>         0.0000
     31 H8          0.2814    2.7601   -2.6762 H         1 <0>         0.0000
     32 H9          0.5561    2.0289   -0.2630 H         1 <0>         0.0000
     33 H10        -0.5147    0.6789   -0.7633 H         1 <0>         0.0000
     34 H11         3.0503   -0.7393   -0.4225 H         1 <0>         0.0000
     35 H12         3.1221    1.0096   -0.0244 H         1 <0>         0.0000
     36 H13         1.3219   -0.2663   -2.1588 H         1 <0>         0.0000
     37 H14         0.1850    0.5730    2.1541 H         1 <0>         0.0000
     38 H15         1.6981    1.4936    1.9414 H         1 <0>         0.0000
     39 H16         5.7442   -0.7561    3.2439 H         1 <0>         0.0000
@<TRIPOS>BOND
     1    1    3 ar
     2    1    5 ar
     3    1   24 1
     4    2    4 ar
     5    2    7 ar
     6    2   25 1
     7    3    9 ar
     8    3   26 1
     9    4   10 ar
    10    4   27 1
    11    5   13 ar
    12    5   28 1
    13    6   12 ar
    14    6   14 ar
    15    6   29 1
    16    7   19 ar
    17    7   30 1
    18    8   10 ar
    19    8   19 ar
    20    8   31 1
    21    9   11 ar
    22    9   12 ar
    23   10   17 1
    24   11   13 ar
    25   11   20 ar
    26   12   22 1
    27   13   23 1
    28   14   18 1
    29   14   20 ar
    30   15   17 1
    31   15   21 1
    32   15   32 1
    33   15   33 1
    34   16   17 1
    35   16   21 1
    36   16   34 1
    37   16   35 1
    38   17   36 1
    39   18   21 1
    40   18   37 1
    41   18   38 1
    42   22   39 1
