@<TRIPOS>MOLECULE
*****
   39    42     0     0     0
SMALL
NO_CHARGES

@<TRIPOS>ATOM
      1 C1          2.9456   -3.8120    6.3257 C.ar      1 <0>         0.0000
      2 C2         -4.1010   -0.4484   -1.9204 C.ar      1 <0>         0.0000
      3 C3          3.4190   -3.6036    5.0460 C.ar      1 <0>         0.0000
      4 C4         -2.8091   -0.6745   -1.4424 C.ar      1 <0>         0.0000
      5 C5          1.8894   -3.0219    6.8408 C.ar      1 <0>         0.0000
      6 C6          2.6721   -1.3109    2.1852 C.ar      1 <0>         0.0000
      7 C7         -4.3993    0.7971   -2.4803 C.ar      1 <0>         0.0000
      8 C8         -2.2702    1.5546   -2.1162 C.ar      1 <0>         0.0000
      9 C9          2.8450   -2.5888    4.2391 C.ar      1 <0>         0.0000
     10 C10        -1.8548    0.3453   -1.5367 C.ar      1 <0>         0.0000
     11 C11         1.7779   -1.7745    4.7316 C.ar      1 <0>         0.0000
     12 C12         3.2792   -2.3153    2.9077 C.ar      1 <0>         0.0000
     13 C13         1.3329   -2.0392    6.0565 C.ar      1 <0>         0.0000
     14 C14         1.6225   -0.5669    2.7863 C.ar      1 <0>         0.0000
     15 C15        -0.1467   -0.7221    0.1718 C.3       1 <0>         0.0000
     16 C16         0.2596    1.2992   -0.2763 C.3       1 <0>         0.0000
     17 C17        -0.4390    0.1610   -1.0688 C.3       1 <0>         0.0000
     18 C18         0.9733    0.5638    2.0128 C.3       1 <0>         0.0000
     19 N1         -3.5041    1.7901   -2.5804 N.ar      1 <0>         0.0000
     20 N2          1.1774   -0.7859    4.0104 N.ar      1 <0>         0.0000
     21 N3          0.8752    0.2687    0.5927 N.3       1 <0>         0.0000
     22 O1          4.2947   -3.0854    2.4199 O.3       1 <0>         0.0000
     23 F1          0.3262   -1.2914    6.5546 F         1 <0>         0.0000
     24 H1          3.3809   -4.5864    6.9509 H         1 <0>         0.0000
     25 H2         -4.8656   -1.2180   -1.8592 H         1 <0>         0.0000
     26 H3          4.2276   -4.2044    4.6443 H         1 <0>         0.0000
     27 H4         -2.5473   -1.6322   -0.9979 H         1 <0>         0.0000
     28 H5          1.5084   -3.1761    7.8458 H         1 <0>         0.0000
     29 H6          2.9628   -1.0739    1.1647 H         1 <0>         0.0000
     30 H7         -5.3973    1.0081   -2.8616 H         1 <0>         0.0000
     31 H8         -1.5649    2.3809   -2.2070 H         1 <0>         0.0000
     32 H9         -1.0062   -0.7612    0.8595 H         1 <0>         0.0000
     33 H10         0.2341   -1.7362    0.0125 H         1 <0>         0.0000
     34 H11         0.9732    1.9409   -0.8037 H         1 <0>         0.0000
     35 H12        -0.4745    1.9261    0.2539 H         1 <0>         0.0000
     36 H13         0.1944   -0.1514   -1.9058 H         1 <0>         0.0000
     37 H14        -0.0036    0.7750    2.4776 H         1 <0>         0.0000
     38 H15         1.5890    1.4663    2.1269 H         1 <0>         0.0000
     39 H16         4.5023   -2.7979    1.5156 H         1 <0>         0.0000
@<TRIPOS>BOND
     1    1    3 ar
     2    1    5 ar
     3    1   24 1
     4    2    4 ar
     5    2    7 ar
     6    2   25 1
     7    3    9 ar
     8    3   26 1
     9    4   10 ar
    10    4   27 1
    11    5   13 ar
    12    5   28 1
    13    6   12 ar
    14    6   14 ar
    15    6   29 1
    16    7   19 ar
    17    7   30 1
    18    8   10 ar
    19    8   19 ar
    20    8   31 1
    21    9   11 ar
    22    9   12 ar
    23   10   17 1
    24   11   13 ar
    25   11   20 ar
    26   12   22 1
    27   13   23 1
    28   14   18 1
    29   14   20 ar
    30   15   17 1
    31   15   21 1
    32   15   32 1
    33   15   33 1
    34   16   17 1
    35   16   21 1
    36   16   34 1
    37   16   35 1
    38   17   36 1
    39   18   21 1
    40   18   37 1
    41   18   38 1
    42   22   39 1
