@<TRIPOS>MOLECULE
*****
   39    41     0     0     0
SMALL
NO_CHARGES

@<TRIPOS>ATOM
      1 C1         -4.1695   -5.2576    5.7134 C.ar      1 <0>         0.0000
      2 C2         -2.9334   -5.4102    6.3603 C.ar      1 <0>         0.0000
      3 C3         -4.2664   -5.3354    4.3197 C.ar      1 <0>         0.0000
      4 C4         -1.7613   -5.6419    5.6285 C.ar      1 <0>         0.0000
      5 C5         -4.0395   -8.2069   -1.2158 C.2       1 <0>         0.0000
      6 C6         -3.1037   -5.5708    3.5881 C.ar      1 <0>         0.0000
      7 C7         -2.8654   -7.8807   -0.4567 C.2       1 <0>         0.0000
      8 C8         -1.8861   -5.7138    4.2477 C.ar      1 <0>         0.0000
      9 C9         -4.5217   -9.4078   -0.7610 C.2       1 <0>         0.0000
     10 C10        -2.6490   -8.9291    0.4444 C.2       1 <0>         0.0000
     11 C11        -3.0028   -5.6819    2.1032 C.2       1 <0>         0.0000
     12 C12        -2.1348   -6.6343   -0.6830 C.2       1 <0>         0.0000
     13 C13        -5.7297  -10.1836   -1.1818 C.3       1 <0>         0.0000
     14 C14        -1.5454   -9.2204    1.4110 C.3       1 <0>         0.0000
     15 C15        -3.7629  -11.1206    0.9370 C.3       1 <0>         0.0000
     16 C16        -1.2027   -6.0234    0.3853 C.3       1 <0>         0.0000
     17 N1         -3.6648   -9.8407    0.2545 N.pl3     1 <0>         0.0000
     18 N2         -1.7113   -6.0955    1.7596 N.am      1 <0>         0.0000
     19 O1         -3.8938   -5.4623    1.3036 O.2       1 <0>         0.0000
     20 O2         -2.2236   -6.0122   -1.7373 O.2       1 <0>         0.0000
     21 O3          0.2318   -4.7577    2.8812 O.2       1 <0>         0.0000
     22 O4          0.0993   -7.2444    3.2632 O.2       1 <0>         0.0000
     23 S1         -0.5758   -5.9632    3.0626 S.o2      1 <0>         0.0000
     24 H1         -5.0618   -5.0759    6.3057 H         1 <0>         0.0000
     25 H2         -2.8818   -5.3449    7.4433 H         1 <0>         0.0000
     26 H3         -5.2132   -5.2188    3.8010 H         1 <0>         0.0000
     27 H4         -0.8003   -5.7583    6.1199 H         1 <0>         0.0000
     28 H5         -4.4764   -7.5819   -1.9822 H         1 <0>         0.0000
     29 H6         -5.4781  -11.1879   -1.5443 H         1 <0>         0.0000
     30 H7         -6.4585  -10.2964   -0.3690 H         1 <0>         0.0000
     31 H8         -6.2271   -9.6534   -1.9970 H         1 <0>         0.0000
     32 H9         -1.8553   -9.0907    2.4543 H         1 <0>         0.0000
     33 H10        -1.1862  -10.2496    1.2994 H         1 <0>         0.0000
     34 H11        -0.6916   -8.5670    1.2540 H         1 <0>         0.0000
     35 H12        -3.1006  -11.8693    0.4859 H         1 <0>         0.0000
     36 H13        -3.5001  -11.0101    1.9911 H         1 <0>         0.0000
     37 H14        -4.7882  -11.4868    0.8797 H         1 <0>         0.0000
     38 H15        -1.0285   -4.9860    0.0915 H         1 <0>         0.0000
     39 H16        -0.2446   -6.5526    0.3574 H         1 <0>         0.0000
@<TRIPOS>BOND
     1    1    2 ar
     2    1    3 ar
     3    1   24 1
     4    2    4 ar
     5    2   25 1
     6    3    6 ar
     7    3   26 1
     8    4    8 ar
     9    4   27 1
    10    5    7 1
    11    5    9 2
    12    5   28 1
    13    6    8 ar
    14    6   11 1
    15    7   10 2
    16    7   12 1
    17    8   23 1
    18    9   13 1
    19    9   17 1
    20   10   14 1
    21   10   17 1
    22   11   18 am
    23   11   19 2
    24   12   16 1
    25   12   20 2
    26   13   29 1
    27   13   30 1
    28   13   31 1
    29   14   32 1
    30   14   33 1
    31   14   34 1
    32   15   17 1
    33   15   35 1
    34   15   36 1
    35   15   37 1
    36   16   18 1
    37   16   38 1
    38   16   39 1
    39   18   23 1
    40   21   23 2
    41   22   23 2
