@<TRIPOS>MOLECULE
*****
   41    43     0     0     0
SMALL
NO_CHARGES

@<TRIPOS>ATOM
      1 C1          0.3144   -3.8503    4.0628 C.ar      1 <0>         0.0000
      2 C2          1.4185   -3.9375    3.2110 C.ar      1 <0>         0.0000
      3 C3          0.0328   -2.6370    4.7036 C.ar      1 <0>         0.0000
      4 C4          2.2279   -2.8169    2.9994 C.ar      1 <0>         0.0000
      5 C5          0.8375   -1.5156    4.4829 C.ar      1 <0>         0.0000
      6 C6          1.9408   -1.5918    3.6168 C.ar      1 <0>         0.0000
      7 C7          1.8959    0.8266    2.9602 C.2       1 <0>         0.0000
      8 C8         -0.3694    1.6774    0.2286 C.3       1 <0>         0.0000
      9 C9          1.5719   -0.8991    0.1400 C.3       1 <0>         0.0000
     10 C10         0.5922    2.0974    1.3503 C.3       1 <0>         0.0000
     11 C11         2.2517    0.4273    0.5010 C.3       1 <0>         0.0000
     12 C12        -1.2828   -0.3755    1.5759 C.3       1 <0>         0.0000
     13 C13        -0.8388    0.2131    0.2095 C.3       1 <0>         0.0000
     14 C14         0.1507   -0.7860   -0.4232 C.3       1 <0>         0.0000
     15 C15         2.7901   -0.3605    3.3218 C.3       1 <0>         0.0000
     16 N1         -1.2840   -1.8529    1.4696 N.pl3     1 <0>         0.0000
     17 N2          1.6319    1.1035    1.6399 N.am      1 <0>         0.0000
     18 O1          1.3628    1.4674    3.8720 O.2       1 <0>         0.0000
     19 O2          0.1126   -3.5166    0.0951 O.2       1 <0>         0.0000
     20 O3         -1.9045   -2.4034   -0.9817 O.2       1 <0>         0.0000
     21 S1         -0.7600   -2.3469   -0.0692 S.o2      1 <0>         0.0000
     22 H1         -0.3265   -4.7139    4.2173 H         1 <0>         0.0000
     23 H2          1.6351   -4.8640    2.6882 H         1 <0>         0.0000
     24 H3         -0.8238   -2.5602    5.3684 H         1 <0>         0.0000
     25 H4          3.0773   -2.8955    2.3246 H         1 <0>         0.0000
     26 H5          0.6065   -0.5713    4.9664 H         1 <0>         0.0000
     27 H6         -1.2497    2.3248    0.3137 H         1 <0>         0.0000
     28 H7          0.0617    1.9029   -0.7533 H         1 <0>         0.0000
     29 H8          2.1886   -1.4341   -0.5895 H         1 <0>         0.0000
     30 H9          1.5623   -1.5224    1.0331 H         1 <0>         0.0000
     31 H10         1.0546    3.0576    1.0859 H         1 <0>         0.0000
     32 H11         0.0518    2.2572    2.2822 H         1 <0>         0.0000
     33 H12         3.3063    0.2388    0.7128 H         1 <0>         0.0000
     34 H13         2.2399    1.1212   -0.3449 H         1 <0>         0.0000
     35 H14        -0.6068   -0.0819    2.3797 H         1 <0>         0.0000
     36 H15        -2.2871   -0.0203    1.8242 H         1 <0>         0.0000
     37 H16        -1.7152    0.1862   -0.4459 H         1 <0>         0.0000
     38 H17         0.1568   -0.6688   -1.5093 H         1 <0>         0.0000
     39 H18         3.3335   -0.0558    4.2205 H         1 <0>         0.0000
     40 H19         3.5268   -0.6032    2.5548 H         1 <0>         0.0000
     41 H20        -0.7338   -2.3231    2.1871 H         1 <0>         0.0000
@<TRIPOS>BOND
     1    1    3 ar
     2    1    2 ar
     3    1   22 1
     4    2    4 ar
     5    2   23 1
     6    3    5 ar
     7    3   24 1
     8    4    6 ar
     9    4   25 1
    10    5    6 ar
    11    5   26 1
    12    6   15 1
    13    7   15 1
    14    7   17 am
    15    7   18 2
    16    8   10 1
    17    8   13 1
    18    8   27 1
    19    8   28 1
    20    9   11 1
    21    9   14 1
    22    9   29 1
    23    9   30 1
    24   10   17 1
    25   10   31 1
    26   10   32 1
    27   11   17 1
    28   11   33 1
    29   11   34 1
    30   12   13 1
    31   12   16 1
    32   12   35 1
    33   12   36 1
    34   13   14 1
    35   13   37 1
    36   14   21 1
    37   14   38 1
    38   15   39 1
    39   15   40 1
    40   16   21 1
    41   16   41 1
    42   19   21 2
    43   20   21 2
