@<TRIPOS>MOLECULE
*****
   43    45     0     0     0
SMALL
NO_CHARGES

@<TRIPOS>ATOM
      1 C1         -1.6273    4.0436   -3.1914 C.ar      1 <0>         0.0000
      2 C2         -2.5602    4.4511   -2.2152 C.ar      1 <0>         0.0000
      3 C3         -1.0014    2.8014   -3.0963 C.ar      1 <0>         0.0000
      4 C4         -2.9006    3.6327   -1.1358 C.ar      1 <0>         0.0000
      5 C5         -1.3263    1.9854   -2.0089 C.ar      1 <0>         0.0000
      6 C6         -2.2715    2.3865   -1.0597 C.ar      1 <0>         0.0000
      7 C7         -0.8412    0.6512   -1.6219 C.2       1 <0>         0.0000
      8 C8         -0.5161   -1.9026    0.1118 C.2       1 <0>         0.0000
      9 C9          3.0263   -1.6243    0.4721 C.3       1 <0>         0.0000
     10 C10         1.7527   -2.3895    0.8642 C.3       1 <0>         0.0000
     11 C11         0.6220   -0.3495    1.7146 C.3       1 <0>         0.0000
     12 C12         2.0562   -0.0212    2.1645 C.3       1 <0>         0.0000
     13 C13         3.0522   -0.1554    0.9842 C.3       1 <0>         0.0000
     14 C14         2.0814    1.3448    2.8573 C.3       1 <0>         0.0000
     15 C15         2.7485    0.8143   -0.1583 C.3       1 <0>         0.0000
     16 C16        -1.7318   -0.9624    0.0838 C.3       1 <0>         0.0000
     17 N1         -2.4725    1.3616   -0.1111 N.pl3     1 <0>         0.0000
     18 N2         -1.4579    0.3909   -0.3893 N.am      1 <0>         0.0000
     19 N3          0.5870   -1.5073    0.8154 N.am      1 <0>         0.0000
     20 O1         -0.0720   -0.1159   -2.1911 O.2       1 <0>         0.0000
     21 O2         -0.6101   -2.9970   -0.4415 O.2       1 <0>         0.0000
     22 O3          4.3792    0.1959    1.4268 O.3       1 <0>         0.0000
     23 H1         -1.3980    4.7076   -4.0198 H         1 <0>         0.0000
     24 H2         -3.0342    5.4246   -2.3087 H         1 <0>         0.0000
     25 H3         -0.2756    2.4661   -3.8316 H         1 <0>         0.0000
     26 H4         -3.6330    3.9497   -0.3983 H         1 <0>         0.0000
     27 H5          3.8921   -2.1616    0.8770 H         1 <0>         0.0000
     28 H6          3.1360   -1.6273   -0.6156 H         1 <0>         0.0000
     29 H7          1.5642   -3.2207    0.1870 H         1 <0>         0.0000
     30 H8          1.8437   -2.8090    1.8753 H         1 <0>         0.0000
     31 H9          0.0046   -0.5350    2.6070 H         1 <0>         0.0000
     32 H10         0.2079    0.5191    1.2002 H         1 <0>         0.0000
     33 H11         2.3606   -0.7700    2.9107 H         1 <0>         0.0000
     34 H12         1.7108    2.1374    2.1996 H         1 <0>         0.0000
     35 H13         3.0985    1.6070    3.1575 H         1 <0>         0.0000
     36 H14         1.4498    1.3333    3.7530 H         1 <0>         0.0000
     37 H15         2.7210    1.8493    0.1925 H         1 <0>         0.0000
     38 H16         1.8048    0.5661   -0.6467 H         1 <0>         0.0000
     39 H17         3.5420    0.7350   -0.9068 H         1 <0>         0.0000
     40 H18        -2.1367   -0.8790    1.0983 H         1 <0>         0.0000
     41 H19        -2.4800   -1.4530   -0.5444 H         1 <0>         0.0000
     42 H20        -2.3826    1.6842    0.8533 H         1 <0>         0.0000
     43 H21         4.6474   -0.4442    2.1059 H         1 <0>         0.0000
@<TRIPOS>BOND
     1    1    2 ar
     2    1    3 ar
     3    1   23 1
     4    2    4 ar
     5    2   24 1
     6    3    5 ar
     7    3   25 1
     8    4    6 ar
     9    4   26 1
    10    5    6 ar
    11    5    7 1
    12    6   17 1
    13    7   18 am
    14    7   20 2
    15    8   16 1
    16    8   19 am
    17    8   21 2
    18    9   10 1
    19    9   13 1
    20    9   27 1
    21    9   28 1
    22   10   19 1
    23   10   29 1
    24   10   30 1
    25   11   12 1
    26   11   19 1
    27   11   31 1
    28   11   32 1
    29   12   13 1
    30   12   14 1
    31   12   33 1
    32   13   15 1
    33   13   22 1
    34   14   34 1
    35   14   35 1
    36   14   36 1
    37   15   37 1
    38   15   38 1
    39   15   39 1
    40   16   18 1
    41   16   40 1
    42   16   41 1
    43   17   18 1
    44   17   42 1
    45   22   43 1
