@<TRIPOS>MOLECULE
*****
   39    42     0     0     0
SMALL
NO_CHARGES

@<TRIPOS>ATOM
      1 C1          3.1067   -1.6352    6.9324 C.ar      1 <0>         0.0000
      2 C2          2.0266    5.6436   -2.9575 C.ar      1 <0>         0.0000
      3 C3          2.6995   -2.0680    5.6872 C.ar      1 <0>         0.0000
      4 C4          1.3828    4.5729   -2.3358 C.ar      1 <0>         0.0000
      5 C5          2.9888   -0.2720    7.2934 C.ar      1 <0>         0.0000
      6 C6          1.1910   -0.5487    2.6034 C.ar      1 <0>         0.0000
      7 C7          3.4242    5.6824   -2.9448 C.ar      1 <0>         0.0000
      8 C8          3.5433    3.7217   -1.7688 C.ar      1 <0>         0.0000
      9 C9          2.1539   -1.1522    4.7483 C.ar      1 <0>         0.0000
     10 C10         2.1485    3.5750   -1.7203 C.ar      1 <0>         0.0000
     11 C11         2.0246    0.2330    5.0903 C.ar      1 <0>         0.0000
     12 C12         1.7078   -1.5156    3.4389 C.ar      1 <0>         0.0000
     13 C13         2.4636    0.6193    6.3891 C.ar      1 <0>         0.0000
     14 C14         1.1166    0.7895    3.0590 C.ar      1 <0>         0.0000
     15 C15         0.2229    2.5750   -0.2183 C.3       1 <0>         0.0000
     16 C16         2.1312    1.7985    0.2362 C.3       1 <0>         0.0000
     17 C17         1.5127    2.3845   -1.0605 C.3       1 <0>         0.0000
     18 C18         0.5229    1.8595    2.1640 C.3       1 <0>         0.0000
     19 N1          4.1792    4.7410   -2.3618 N.ar      1 <0>         0.0000
     20 N2          1.5221    1.1811    4.2569 N.ar      1 <0>         0.0000
     21 N3          0.7558    1.5950    0.7554 N.3       1 <0>         0.0000
     22 O1          1.7717   -2.7955    2.9737 O.3       1 <0>         0.0000
     23 F1          2.3542    1.9163    6.7367 F         1 <0>         0.0000
     24 H1          3.5220   -2.3402    7.6465 H         1 <0>         0.0000
     25 H2          1.4616    6.4356   -3.4413 H         1 <0>         0.0000
     26 H3          2.8071   -3.1243    5.4483 H         1 <0>         0.0000
     27 H4          0.2964    4.5147   -2.3261 H         1 <0>         0.0000
     28 H5          3.3051    0.0834    8.2692 H         1 <0>         0.0000
     29 H6          0.8494   -0.8020    1.6061 H         1 <0>         0.0000
     30 H7          3.9595    6.5034   -3.4196 H         1 <0>         0.0000
     31 H8          4.1828    2.9744   -1.2994 H         1 <0>         0.0000
     32 H9          0.1595    3.5963    0.1909 H         1 <0>         0.0000
     33 H10        -0.7387    2.3011   -0.6656 H         1 <0>         0.0000
     34 H11         2.7334    0.8877    0.1609 H         1 <0>         0.0000
     35 H12         2.6909    2.5593    0.8029 H         1 <0>         0.0000
     36 H13         1.3620    1.5853   -1.7938 H         1 <0>         0.0000
     37 H14        -0.5630    1.8859    2.3278 H         1 <0>         0.0000
     38 H15         0.9229    2.8336    2.4917 H         1 <0>         0.0000
     39 H16         2.1468   -3.3787    3.6514 H         1 <0>         0.0000
@<TRIPOS>BOND
     1    1    3 ar
     2    1    5 ar
     3    1   24 1
     4    2    4 ar
     5    2    7 ar
     6    2   25 1
     7    3    9 ar
     8    3   26 1
     9    4   10 ar
    10    4   27 1
    11    5   13 ar
    12    5   28 1
    13    6   12 ar
    14    6   14 ar
    15    6   29 1
    16    7   19 ar
    17    7   30 1
    18    8   10 ar
    19    8   19 ar
    20    8   31 1
    21    9   11 ar
    22    9   12 ar
    23   10   17 1
    24   11   13 ar
    25   11   20 ar
    26   12   22 1
    27   13   23 1
    28   14   18 1
    29   14   20 ar
    30   15   17 1
    31   15   21 1
    32   15   32 1
    33   15   33 1
    34   16   17 1
    35   16   21 1
    36   16   34 1
    37   16   35 1
    38   17   36 1
    39   18   21 1
    40   18   37 1
    41   18   38 1
    42   22   39 1
