@<TRIPOS>MOLECULE
*****
   43    45     0     0     0
SMALL
NO_CHARGES

@<TRIPOS>ATOM
      1 C1         -0.0450    6.3348   -1.0381 C.ar      1 <0>         0.0000
      2 C2          0.3531    5.9721   -2.3423 C.ar      1 <0>         0.0000
      3 C3         -0.9795    5.5677   -0.3446 C.ar      1 <0>         0.0000
      4 C4         -0.1540    4.8374   -2.9777 C.ar      1 <0>         0.0000
      5 C5         -1.5052    4.4400   -0.9817 C.ar      1 <0>         0.0000
      6 C6         -1.0850    4.0737   -2.2670 C.ar      1 <0>         0.0000
      7 C7         -2.4839    3.4414   -0.5282 C.2       1 <0>         0.0000
      8 C8         -2.2826    0.1377   -1.8486 C.2       1 <0>         0.0000
      9 C9          0.9124   -0.7485   -0.7692 C.3       1 <0>         0.0000
     10 C10        -0.4961   -1.3162   -1.0337 C.3       1 <0>         0.0000
     11 C11        -1.6043    0.2016    0.5689 C.3       1 <0>         0.0000
     12 C12        -0.2481    0.1001    1.2996 C.3       1 <0>         0.0000
     13 C13         0.9314    0.3531    0.3270 C.3       1 <0>         0.0000
     14 C14        -0.2605    1.0108    2.5318 C.3       1 <0>         0.0000
     15 C15         0.8917    1.7444   -0.3061 C.3       1 <0>         0.0000
     16 C16        -3.2753    1.2841   -1.5842 C.3       1 <0>         0.0000
     17 N1         -1.6768    2.8545   -2.6319 N.pl3     1 <0>         0.0000
     18 N2         -2.6270    2.5821   -1.6137 N.am      1 <0>         0.0000
     19 N3         -1.5130   -0.2899   -0.8117 N.am      1 <0>         0.0000
     20 O1         -3.0554    3.3043    0.5560 O.2       1 <0>         0.0000
     21 O2         -2.2084   -0.3247   -2.9916 O.2       1 <0>         0.0000
     22 O3          2.1818    0.3102    1.0413 O.3       1 <0>         0.0000
     23 H1          0.3840    7.2194   -0.5765 H         1 <0>         0.0000
     24 H2          1.0822    6.5865   -2.8639 H         1 <0>         0.0000
     25 H3         -1.3035    5.8274    0.6592 H         1 <0>         0.0000
     26 H4          0.1752    4.5539   -3.9735 H         1 <0>         0.0000
     27 H5          1.5668   -1.5719   -0.4594 H         1 <0>         0.0000
     28 H6          1.3352   -0.3424   -1.6927 H         1 <0>         0.0000
     29 H7         -0.5992   -1.6764   -2.0560 H         1 <0>         0.0000
     30 H8         -0.7057   -2.1565   -0.3601 H         1 <0>         0.0000
     31 H9         -2.3554   -0.3767    1.1254 H         1 <0>         0.0000
     32 H10        -1.9308    1.2389    0.5776 H         1 <0>         0.0000
     33 H11        -0.1282   -0.9346    1.6558 H         1 <0>         0.0000
     34 H12        -0.4564    2.0518    2.2594 H         1 <0>         0.0000
     35 H13         0.6966    0.9683    3.0572 H         1 <0>         0.0000
     36 H14        -1.0499    0.7021    3.2259 H         1 <0>         0.0000
     37 H15         0.8230    2.5306    0.4489 H         1 <0>         0.0000
     38 H16         0.0531    1.8348   -0.9961 H         1 <0>         0.0000
     39 H17         1.8125    1.9019   -0.8750 H         1 <0>         0.0000
     40 H18        -3.7831    1.2270   -0.6197 H         1 <0>         0.0000
     41 H19        -4.0224    1.2206   -2.3805 H         1 <0>         0.0000
     42 H20        -2.0968    2.8096   -3.5597 H         1 <0>         0.0000
     43 H21         2.2568   -0.5617    1.4624 H         1 <0>         0.0000
@<TRIPOS>BOND
     1    1    2 ar
     2    1    3 ar
     3    1   23 1
     4    2    4 ar
     5    2   24 1
     6    3    5 ar
     7    3   25 1
     8    4    6 ar
     9    4   26 1
    10    5    6 ar
    11    5    7 1
    12    6   17 1
    13    7   18 am
    14    7   20 2
    15    8   16 1
    16    8   19 am
    17    8   21 2
    18    9   10 1
    19    9   13 1
    20    9   27 1
    21    9   28 1
    22   10   19 1
    23   10   29 1
    24   10   30 1
    25   11   12 1
    26   11   19 1
    27   11   31 1
    28   11   32 1
    29   12   13 1
    30   12   14 1
    31   12   33 1
    32   13   15 1
    33   13   22 1
    34   14   34 1
    35   14   35 1
    36   14   36 1
    37   15   37 1
    38   15   38 1
    39   15   39 1
    40   16   18 1
    41   16   40 1
    42   16   41 1
    43   17   18 1
    44   17   42 1
    45   22   43 1
