@<TRIPOS>MOLECULE
*****
   19    20     0     0     0
SMALL
NO_CHARGES

@<TRIPOS>ATOM
      1 C1          0.5087   -1.4620    5.9495 C.1       1 <0>         0.0000
      2 C2          1.3879   -0.0684    1.6522 C.ar      1 <0>         0.0000
      3 C3          1.6520   -0.6227    2.8997 C.ar      1 <0>         0.0000
      4 C4         -0.6317   -1.3224    1.5803 C.ar      1 <0>         0.0000
      5 C5          0.2265   -0.4197    0.9733 C.ar      1 <0>         0.0000
      6 C6          0.7299   -1.5161    3.4206 C.ar      1 <0>         0.0000
      7 C7          1.0278   -3.6497    4.8217 C.3       1 <0>         0.0000
      8 C8          2.3074   -2.8859    4.9179 C.3       1 <0>         0.0000
      9 C9          0.9930   -2.1234    4.7577 C.3       1 <0>         0.0000
     10 N1          0.1204   -0.9315    6.9055 N.1       1 <0>         0.0000
     11 N2         -0.4092   -1.8816    2.7908 N.ar      1 <0>         0.0000
     12 Br1        -0.1706    0.3096   -0.7171 Br        1 <0>         0.0000
     13 H1          2.0959    0.6352    1.2226 H         1 <0>         0.0000
     14 H2          2.5541   -0.3556    3.4400 H         1 <0>         0.0000
     15 H3         -1.5553   -1.6376    1.1044 H         1 <0>         0.0000
     16 H4          0.8450   -4.2124    3.9129 H         1 <0>         0.0000
     17 H5          0.6712   -4.1475    5.7169 H         1 <0>         0.0000
     18 H6          2.8119   -2.8704    5.8779 H         1 <0>         0.0000
     19 H7          2.9869   -2.9364    4.0740 H         1 <0>         0.0000
@<TRIPOS>BOND
     1    1    9 1
     2    1   10 3
     3    2    3 ar
     4    2    5 ar
     5    2   13 1
     6    3    6 ar
     7    3   14 1
     8    4    5 ar
     9    4   11 ar
    10    4   15 1
    11    5   12 1
    12    6    9 1
    13    6   11 ar
    14    7    8 1
    15    7    9 1
    16    7   16 1
    17    7   17 1
    18    8    9 1
    19    8   18 1
    20    8   19 1
