@<TRIPOS>MOLECULE
*****
   24    24     0     0     0
SMALL
NO_CHARGES

@<TRIPOS>ATOM
      1 C1          3.1585    3.0780   -4.3481 C.2       1 <0>         0.0000
      2 C2          4.3283    3.3135   -3.6342 C.2       1 <0>         0.0000
      3 C3          2.1769    2.7235   -3.3901 C.2       1 <0>         0.0000
      4 C4          2.7571    2.7594   -2.1189 C.2       1 <0>         0.0000
      5 C5          2.2671    2.3013   -0.8026 C.2       1 <0>         0.0000
      6 C6          5.0969    3.2688   -1.2598 C.3       1 <0>         0.0000
      7 C7          0.4111    1.9166    0.7136 C.3       1 <0>         0.0000
      8 C8          0.1267    3.5821   -1.0801 C.3       1 <0>         0.0000
      9 N1          4.0949    3.1120   -2.3083 N.pl3     1 <0>         0.0000
     10 N2          0.9497    2.5341   -0.4909 N.am      1 <0>         0.0000
     11 O1          3.0216    1.6941   -0.0245 O.2       1 <0>         0.0000
     12 O2          0.8713    2.3678   -3.6278 O.3       1 <0>         0.0000
     13 H1          3.0363    3.1496   -5.4220 H         1 <0>         0.0000
     14 H2          5.3033    3.6243   -3.9849 H         1 <0>         0.0000
     15 H3          4.7354    3.9486   -0.4845 H         1 <0>         0.0000
     16 H4          5.3203    2.3079   -0.7953 H         1 <0>         0.0000
     17 H5          5.9968    3.6912   -1.7118 H         1 <0>         0.0000
     18 H6          0.4501    2.6047    1.5696 H         1 <0>         0.0000
     19 H7          0.9944    1.0300    0.9583 H         1 <0>         0.0000
     20 H8         -0.6333    1.6370    0.5378 H         1 <0>         0.0000
     21 H9         -0.7388    3.1613   -1.6021 H         1 <0>         0.0000
     22 H10         0.7054    4.1692   -1.7906 H         1 <0>         0.0000
     23 H11        -0.2295    4.2511   -0.2854 H         1 <0>         0.0000
     24 H12         0.7516    2.2887   -4.5864 H         1 <0>         0.0000
@<TRIPOS>BOND
     1    1    2 2
     2    1    3 1
     3    1   13 1
     4    2    9 1
     5    2   14 1
     6    3    4 2
     7    3   12 1
     8    4    5 1
     9    4    9 1
    10    5   10 am
    11    5   11 2
    12    6    9 1
    13    6   15 1
    14    6   16 1
    15    6   17 1
    16    7   10 1
    17    7   18 1
    18    7   19 1
    19    7   20 1
    20    8   10 1
    21    8   21 1
    22    8   22 1
    23    8   23 1
    24   12   24 1
