@<TRIPOS>MOLECULE
*****
   19    19     0     0     0
SMALL
NO_CHARGES

@<TRIPOS>ATOM
      1 C1          4.0858   -4.0738   -1.2350 C.2       1 <0>         0.0000
      2 C2          2.0993   -3.1803   -0.9335 C.2       1 <0>         0.0000
      3 C3          2.7203   -4.3927   -1.1098 C.2       1 <0>         0.0000
      4 C4          1.7023    1.2211    0.9670 C.3       1 <0>         0.0000
      5 C5          2.0004   -0.2498    0.7801 C.3       1 <0>         0.0000
      6 N1          4.3191   -2.7616   -1.1458 N.2       1 <0>         0.0000
      7 N2          3.0919   -2.2453   -0.9629 N.pl3     1 <0>         0.0000
      8 O1          4.0849    0.0408   -0.7663 O.2       1 <0>         0.0000
      9 O2          1.8102   -0.2980   -1.8393 O.2       1 <0>         0.0000
     10 O3          2.1196   -5.5873   -1.1475 O.3       1 <0>         0.0000
     11 S1          2.7642   -0.5619   -0.7783 S.o2      1 <0>         0.0000
     12 H1          4.9213   -4.7419   -1.3874 H         1 <0>         0.0000
     13 H2          1.0596   -2.9164   -0.7935 H         1 <0>         0.0000
     14 H3          2.6261    1.8060    0.9322 H         1 <0>         0.0000
     15 H4          1.0334    1.5886    0.1819 H         1 <0>         0.0000
     16 H5          1.2161    1.4038    1.9307 H         1 <0>         0.0000
     17 H6          1.0821   -0.8425    0.8135 H         1 <0>         0.0000
     18 H7          2.6842   -0.6118    1.5526 H         1 <0>         0.0000
     19 H8          2.7652   -6.3104   -1.2834 H         1 <0>         0.0000
@<TRIPOS>BOND
     1    1    3 1
     2    1    6 2
     3    1   12 1
     4    2    3 2
     5    2    7 1
     6    2   13 1
     7    3   10 1
     8    4    5 1
     9    4   14 1
    10    4   15 1
    11    4   16 1
    12    5   11 1
    13    5   17 1
    14    5   18 1
    15    6    7 1
    16    7   11 1
    17    8   11 2
    18    9   11 2
    19   10   19 1
