@<TRIPOS>MOLECULE
*****
   37    38     0     0     0
SMALL
NO_CHARGES

@<TRIPOS>ATOM
      1 C1         -0.7576    1.4361   -2.2149 C.2       1 <0>         0.0000
      2 C2         -1.3078    0.1566   -0.6400 C.2       1 <0>         0.0000
      3 C3          0.0189    2.6433    1.2731 C.3       1 <0>         0.0000
      4 C4          0.6509    1.3670    1.8318 C.3       1 <0>         0.0000
      5 C5          0.9522    2.7081    2.4416 C.3       1 <0>         0.0000
      6 C6          3.5455   -3.1314   -1.3090 C.3       1 <0>         0.0000
      7 C7          1.9862   -3.3297    0.6422 C.3       1 <0>         0.0000
      8 C8          4.0059   -1.8262    0.7740 C.3       1 <0>         0.0000
      9 C9          1.6869    0.5880    1.0496 C.3       1 <0>         0.0000
     10 C10         1.0472   -0.4658    0.1315 C.3       1 <0>         0.0000
     11 C11         2.0365   -1.2348   -0.7883 C.3       1 <0>         0.0000
     12 C12         2.8890   -2.3612   -0.1424 C.3       1 <0>         0.0000
     13 N1         -1.8485    0.9409   -1.5676 N.2       1 <0>         0.0000
     14 N2          0.4107    1.0096   -1.7401 N.2       1 <0>         0.0000
     15 N3          0.0388    0.1765   -0.7263 N.pl3     1 <0>         0.0000
     16 O1          2.9139   -0.3332   -1.4526 O.3       1 <0>         0.0000
     17 Cl1         2.5608    3.4364    2.2267 Cl        1 <0>         0.0000
     18 Cl2         0.2602    3.0536    4.0489 Cl        1 <0>         0.0000
     19 H1         -0.8163    2.1194   -3.0522 H         1 <0>         0.0000
     20 H2         -1.8430   -0.4289    0.0964 H         1 <0>         0.0000
     21 H3          0.3975    3.0064    0.3229 H         1 <0>         0.0000
     22 H4         -1.0336    2.8311    1.4571 H         1 <0>         0.0000
     23 H5         -0.0066    0.7575    2.4489 H         1 <0>         0.0000
     24 H6          4.1880   -2.4727   -1.8976 H         1 <0>         0.0000
     25 H7          2.7886   -3.5563   -1.9787 H         1 <0>         0.0000
     26 H8          4.1535   -3.9568   -0.9236 H         1 <0>         0.0000
     27 H9          1.5822   -2.8764    1.5541 H         1 <0>         0.0000
     28 H10         1.1453   -3.6834    0.0331 H         1 <0>         0.0000
     29 H11         2.5605   -4.2093    0.9507 H         1 <0>         0.0000
     30 H12         3.6225   -1.4659    1.7326 H         1 <0>         0.0000
     31 H13         4.5525   -1.0127    0.2913 H         1 <0>         0.0000
     32 H14         4.7153   -2.6301    0.9979 H         1 <0>         0.0000
     33 H15         2.3545    0.0835    1.7498 H         1 <0>         0.0000
     34 H16         2.3064    1.2543    0.4484 H         1 <0>         0.0000
     35 H17         0.4841   -1.1877    0.7282 H         1 <0>         0.0000
     36 H18         1.3930   -1.7360   -1.5292 H         1 <0>         0.0000
     37 H19         2.3516    0.3164   -1.9186 H         1 <0>         0.0000
@<TRIPOS>BOND
     1    1   13 1
     2    1   14 2
     3    1   19 1
     4    2   13 2
     5    2   15 1
     6    2   20 1
     7    3    4 1
     8    3    5 1
     9    3   21 1
    10    3   22 1
    11    4    5 1
    12    4    9 1
    13    4   23 1
    14    5   17 1
    15    5   18 1
    16    6   12 1
    17    6   24 1
    18    6   25 1
    19    6   26 1
    20    7   12 1
    21    7   27 1
    22    7   28 1
    23    7   29 1
    24    8   12 1
    25    8   30 1
    26    8   31 1
    27    8   32 1
    28    9   10 1
    29    9   33 1
    30    9   34 1
    31   10   11 1
    32   10   15 1
    33   10   35 1
    34   11   12 1
    35   11   16 1
    36   11   36 1
    37   14   15 1
    38   16   37 1
