@<TRIPOS>MOLECULE
*****
   48    51     0     0     0
SMALL
NO_CHARGES

@<TRIPOS>ATOM
      1 C1          4.4408   -1.7168   -1.3255 C.ar      1 <0>         0.0000
      2 C2          4.7170   -3.3074    0.4720 C.ar      1 <0>         0.0000
      3 C3          2.8783   -1.6520    2.0022 C.ar      1 <0>         0.0000
      4 C4          1.8851   -1.0363   -0.1124 C.ar      1 <0>         0.0000
      5 C5          5.5195   -2.2902   -1.9987 C.ar      1 <0>         0.0000
      6 C6          5.7957   -3.8809   -0.2013 C.ar      1 <0>         0.0000
      7 C7          1.7997   -1.0786    2.6757 C.ar      1 <0>         0.0000
      8 C8          0.8066   -0.4630    0.5610 C.ar      1 <0>         0.0000
      9 C9          6.4741   -3.8511   -5.6696 C.ar      1 <0>         0.0000
     10 C10         7.8061   -5.8609   -5.5157 C.ar      1 <0>         0.0000
     11 C11        -3.2922   -0.5814    0.6292 C.ar      1 <0>         0.0000
     12 C12        -4.1935   -0.5740    2.8708 C.ar      1 <0>         0.0000
     13 C13         7.1439   -3.4969   -6.8407 C.ar      1 <0>         0.0000
     14 C14         8.4759   -5.5067   -6.6868 C.ar      1 <0>         0.0000
     15 C15        -4.3902    0.1555    0.1853 C.ar      1 <0>         0.0000
     16 C16        -5.2914    0.1629    2.4269 C.ar      1 <0>         0.0000
     17 C17         4.0396   -2.2253   -0.0901 C.ar      1 <0>         0.0000
     18 C18         2.9210   -1.6309    0.6081 C.ar      1 <0>         0.0000
     19 C19         6.1969   -3.3723   -1.4366 C.ar      1 <0>         0.0000
     20 C20         0.7638   -0.4841    1.9551 C.ar      1 <0>         0.0000
     21 C21         6.8051   -5.0332   -5.0071 C.ar      1 <0>         0.0000
     22 C22        -3.1938   -0.9462    1.9719 C.ar      1 <0>         0.0000
     23 C23         8.1448   -4.3247   -7.3493 C.ar      1 <0>         0.0000
     24 C24        -5.3898    0.5277    1.0842 C.ar      1 <0>         0.0000
     25 O1          7.2489   -3.9320   -2.0940 O.3       1 <0>         0.0000
     26 O2         -0.2883    0.0758    2.6119 O.3       1 <0>         0.0000
     27 O3          6.1449   -5.3822   -3.8541 O.3       1 <0>         0.0000
     28 O4         -2.1120   -1.6714    2.4090 O.3       1 <0>         0.0000
     29 S1          7.0956   -5.5505   -2.4933 S.3       1 <0>         0.0000
     30 S2         -1.1805   -0.9490    3.5898 S.3       1 <0>         0.0000
     31 Cl1         8.9701   -3.8882   -8.7949 Cl        1 <0>         0.0000
     32 Cl2        -6.7436    1.4381    0.5366 Cl        1 <0>         0.0000
     33 H1          3.9227   -0.8739   -1.7765 H         1 <0>         0.0000
     34 H2          4.4164   -3.7153    1.4341 H         1 <0>         0.0000
     35 H3          3.6780   -2.1115    2.5781 H         1 <0>         0.0000
     36 H4          1.9042   -1.0119   -1.1994 H         1 <0>         0.0000
     37 H5          5.8272   -1.8898   -2.9608 H         1 <0>         0.0000
     38 H6          6.3195   -4.7237    0.2413 H         1 <0>         0.0000
     39 H7          1.7719   -1.0979    3.7617 H         1 <0>         0.0000
     40 H8          0.0027   -0.0012   -0.0057 H         1 <0>         0.0000
     41 H9          5.6950   -3.2025   -5.2786 H         1 <0>         0.0000
     42 H10         8.0685   -6.7831   -5.0049 H         1 <0>         0.0000
     43 H11        -2.5165   -0.8680   -0.0756 H         1 <0>         0.0000
     44 H12        -4.1228   -0.8544    3.9180 H         1 <0>         0.0000
     45 H13         6.8749   -2.5733   -7.3471 H         1 <0>         0.0000
     46 H14         9.2532   -6.1618   -7.0724 H         1 <0>         0.0000
     47 H15        -4.4534    0.4337   -0.8637 H         1 <0>         0.0000
     48 H16        -6.0626    0.4471    3.1386 H         1 <0>         0.0000
@<TRIPOS>BOND
     1    1    5 ar
     2    1   17 ar
     3    1   33 1
     4    2    6 ar
     5    2   17 ar
     6    2   34 1
     7    3    7 ar
     8    3   18 ar
     9    3   35 1
    10    4    8 ar
    11    4   18 ar
    12    4   36 1
    13    5   19 ar
    14    5   37 1
    15    6   19 ar
    16    6   38 1
    17    7   20 ar
    18    7   39 1
    19    8   20 ar
    20    8   40 1
    21    9   13 ar
    22    9   21 ar
    23    9   41 1
    24   10   14 ar
    25   10   21 ar
    26   10   42 1
    27   11   15 ar
    28   11   22 ar
    29   11   43 1
    30   12   16 ar
    31   12   22 ar
    32   12   44 1
    33   13   23 ar
    34   13   45 1
    35   14   23 ar
    36   14   46 1
    37   15   24 ar
    38   15   47 1
    39   16   24 ar
    40   16   48 1
    41   17   18 1
    42   19   25 1
    43   20   26 1
    44   21   27 1
    45   22   28 1
    46   23   31 1
    47   24   32 1
    48   25   29 1
    49   26   30 1
    50   27   29 1
    51   28   30 1
