@<TRIPOS>MOLECULE
*****
   43    46     0     0     0
SMALL
NO_CHARGES

@<TRIPOS>ATOM
      1 C1         -0.5221   -2.7400    5.3084 C.ar      1 <0>         0.0000
      2 C2         -0.1636   -2.9082    6.6482 C.ar      1 <0>         0.0000
      3 C3          0.9903   -4.9371    6.0747 C.ar      1 <0>         0.0000
      4 C4          0.6434   -5.4918    2.4205 C.ar      1 <0>         0.0000
      5 C5          0.6296   -4.7676    4.7271 C.ar      1 <0>         0.0000
      6 C6         -0.1389   -3.6533    4.3300 C.ar      1 <0>         0.0000
      7 C7          1.0154   -5.6875    3.7427 C.ar      1 <0>         0.0000
      8 C8          0.5935   -4.0080    7.0321 C.ar      1 <0>         0.0000
      9 C9         -0.1086   -4.3720    2.1283 C.ar      1 <0>         0.0000
     10 C10         0.8362    0.3672   -1.4923 C.3       1 <0>         0.0000
     11 C11         0.0906   -0.9388   -3.3729 C.3       1 <0>         0.0000
     12 C12         0.0951   -3.3140   -1.4872 C.3       1 <0>         0.0000
     13 C13         0.7811   -2.1729    0.1144 C.3       1 <0>         0.0000
     14 C14         0.0361    1.5491   -2.0323 C.3       1 <0>         0.0000
     15 C15        -0.6910    0.2743   -3.8692 C.3       1 <0>         0.0000
     16 C16         0.9621   -2.0406   -1.4116 C.3       1 <0>         0.0000
     17 C17        -0.5341   -4.1195    0.7108 C.3       1 <0>         0.0000
     18 N1         -0.5015   -3.4608    3.0477 N.ar      1 <0>         0.0000
     19 N2          0.2058   -0.8932   -1.9086 N.3       1 <0>         0.0000
     20 N3          0.5669   -3.6292   -0.1104 N.3       1 <0>         0.0000
     21 O1         -0.0504    1.4819   -3.4561 O.3       1 <0>         0.0000
     22 O2          1.7593   -6.7901    4.0481 O.3       1 <0>         0.0000
     23 F1          0.9395   -4.1734    8.3153 F         1 <0>         0.0000
     24 H1         -1.1156   -1.8700    5.0333 H         1 <0>         0.0000
     25 H2         -0.4774   -2.1786    7.3888 H         1 <0>         0.0000
     26 H3          1.5823   -5.7905    6.3967 H         1 <0>         0.0000
     27 H4          0.9348   -6.1953    1.6477 H         1 <0>         0.0000
     28 H5          1.8658    0.4233   -1.8702 H         1 <0>         0.0000
     29 H6          0.8738    0.4291   -0.3987 H         1 <0>         0.0000
     30 H7         -0.4291   -1.8524   -3.6839 H         1 <0>         0.0000
     31 H8          1.0864   -0.9421   -3.8354 H         1 <0>         0.0000
     32 H9         -0.9812   -3.1740   -1.5765 H         1 <0>         0.0000
     33 H10         0.4237   -4.0051   -2.2663 H         1 <0>         0.0000
     34 H11         1.6825   -1.9112    0.6727 H         1 <0>         0.0000
     35 H12        -0.0664   -1.6524    0.5575 H         1 <0>         0.0000
     36 H13        -0.9739    1.5839   -1.6055 H         1 <0>         0.0000
     37 H14         0.5375    2.4872   -1.7738 H         1 <0>         0.0000
     38 H15        -0.7252    0.2734   -4.9634 H         1 <0>         0.0000
     39 H16        -1.7257    0.2661   -3.5047 H         1 <0>         0.0000
     40 H17         1.9881   -2.1226   -1.7884 H         1 <0>         0.0000
     41 H18        -0.9136   -5.0390    0.2519 H         1 <0>         0.0000
     42 H19        -1.3393   -3.3785    0.6682 H         1 <0>         0.0000
     43 H20         1.9302   -7.3084    3.2471 H         1 <0>         0.0000
@<TRIPOS>BOND
     1    1    2 ar
     2    1    6 ar
     3    1   24 1
     4    2    8 ar
     5    2   25 1
     6    3    5 ar
     7    3    8 ar
     8    3   26 1
     9    4    7 ar
    10    4    9 ar
    11    4   27 1
    12    5    6 ar
    13    5    7 ar
    14    6   18 ar
    15    7   22 1
    16    8   23 1
    17    9   17 1
    18    9   18 ar
    19   10   14 1
    20   10   19 1
    21   10   28 1
    22   10   29 1
    23   11   15 1
    24   11   19 1
    25   11   30 1
    26   11   31 1
    27   12   16 1
    28   12   20 1
    29   12   32 1
    30   12   33 1
    31   13   16 1
    32   13   20 1
    33   13   34 1
    34   13   35 1
    35   14   21 1
    36   14   36 1
    37   14   37 1
    38   15   21 1
    39   15   38 1
    40   15   39 1
    41   16   19 1
    42   16   40 1
    43   17   20 1
    44   17   41 1
    45   17   42 1
    46   22   43 1
