@<TRIPOS>MOLECULE
*****
   30    30     0     0     0
SMALL
NO_CHARGES

@<TRIPOS>ATOM
      1 C1          1.3712    3.2789   -0.1182 C.ar      1 <0>         0.0000
      2 C2         -0.9153    3.7085   -0.7695 C.ar      1 <0>         0.0000
      3 C3          1.3252    4.3630    0.7583 C.ar      1 <0>         0.0000
      4 C4         -0.9614    4.7925    0.1070 C.ar      1 <0>         0.0000
      5 C5          0.2509    2.9517   -0.8822 C.ar      1 <0>         0.0000
      6 C6          0.1589    5.1198    0.8709 C.ar      1 <0>         0.0000
      7 C7          1.1907    0.6604   -1.4613 C.2       1 <0>         0.0000
      8 C8          0.7061   -0.3590   -0.7425 C.2       1 <0>         0.0000
      9 C9          0.2999    1.7991   -1.8141 C.2       1 <0>         0.0000
     10 C10        -1.5281   -0.2366   -1.5895 C.3       1 <0>         0.0000
     11 C11        -0.8694    0.9331    0.5153 C.3       1 <0>         0.0000
     12 C12        -1.0030   -1.5539    0.4600 C.3       1 <0>         0.0000
     13 N1         -0.6739   -0.3056   -0.3383 N.4       1 <0>         0.0000
     14 O1         -0.3621    1.8226   -2.8459 O.2       1 <0>         0.0000
     15 Br1         0.0966    6.5886    2.0586 Br        1 <0>         0.0000
     16 H1          2.2852    2.6959   -0.1981 H         1 <0>         0.0000
     17 H2         -1.7941    3.4623   -1.3601 H         1 <0>         0.0000
     18 H3          2.2069    4.6047    1.3464 H         1 <0>         0.0000
     19 H4         -1.8779    5.3720    0.1830 H         1 <0>         0.0000
     20 H5          2.2190    0.6650   -1.8058 H         1 <0>         0.0000
     21 H6          1.3010   -1.2178   -0.4551 H         1 <0>         0.0000
     22 H7         -2.5735   -0.1963   -1.2783 H         1 <0>         0.0000
     23 H8         -1.2464    0.6648   -2.1372 H         1 <0>         0.0000
     24 H9         -1.3288   -1.1330   -2.1799 H         1 <0>         0.0000
     25 H10        -1.9174    0.9677    0.8184 H         1 <0>         0.0000
     26 H11        -0.2123    0.8480    1.3829 H         1 <0>         0.0000
     27 H12        -0.6076    1.8018   -0.0917 H         1 <0>         0.0000
     28 H13        -2.0518   -1.4939    0.7564 H         1 <0>         0.0000
     29 H14        -0.8254   -2.4182   -0.1828 H         1 <0>         0.0000
     30 H15        -0.3489   -1.5737    1.3339 H         1 <0>         0.0000
@<TRIPOS>BOND
     1    1    3 ar
     2    1    5 ar
     3    1   16 1
     4    2    4 ar
     5    2    5 ar
     6    2   17 1
     7    3    6 ar
     8    3   18 1
     9    4    6 ar
    10    4   19 1
    11    5    9 1
    12    6   15 1
    13    7    8 2
    14    7    9 1
    15    7   20 1
    16    8   13 1
    17    8   21 1
    18    9   14 2
    19   10   13 1
    20   10   22 1
    21   10   23 1
    22   10   24 1
    23   11   13 1
    24   11   25 1
    25   11   26 1
    26   11   27 1
    27   12   13 1
    28   12   28 1
    29   12   29 1
    30   12   30 1
