@<TRIPOS>MOLECULE
*****
   31    33     0     0     0
SMALL
NO_CHARGES

@<TRIPOS>ATOM
      1 C1         -0.2038   -1.7511   -5.0228 C.ar      1 <0>         0.0000
      2 C2         -0.2101   -0.4936   -4.4037 C.ar      1 <0>         0.0000
      3 C3          0.0558   -2.9145   -4.2870 C.ar      1 <0>         0.0000
      4 C4         -1.5879   -5.1654   -0.1499 C.ar      1 <0>         0.0000
      5 C5         -0.4389   -5.8925    1.8495 C.ar      1 <0>         0.0000
      6 C6          0.0394   -0.3706   -3.0293 C.ar      1 <0>         0.0000
      7 C7         -2.6113   -4.6356    0.6277 C.ar      1 <0>         0.0000
      8 C8         -1.4467   -5.3461    2.6417 C.ar      1 <0>         0.0000
      9 C9          0.3168   -2.7923   -2.9204 C.ar      1 <0>         0.0000
     10 C10        -0.4782   -5.7909    0.4487 C.ar      1 <0>         0.0000
     11 C11         0.2982   -1.5337   -2.3227 C.ar      1 <0>         0.0000
     12 C12        -2.5276   -4.7177    2.0209 C.ar      1 <0>         0.0000
     13 C13         0.6212   -3.8331   -1.8942 C.2       1 <0>         0.0000
     14 C14         0.6338   -6.3899   -0.3015 C.2       1 <0>         0.0000
     15 N1          0.8223   -3.4436   -0.6699 N.2       1 <0>         0.0000
     16 N2          1.1217   -6.1952   -1.4805 N.2       1 <0>         0.0000
     17 N3          0.6128   -5.1497   -2.2668 N.pl3     1 <0>         0.0000
     18 O1          1.9006   -1.1382   -0.1906 O.2       1 <0>         0.0000
     19 O2         -0.5766   -1.4610    0.2131 O.2       1 <0>         0.0000
     20 S1          0.6298   -1.7585   -0.5591 S.o2      1 <0>         0.0000
     21 Cl1        -3.8033   -4.0275    3.0006 Cl        1 <0>         0.0000
     22 H1         -0.4063   -1.8254   -6.0873 H         1 <0>         0.0000
     23 H2         -0.4153    0.3948   -4.9942 H         1 <0>         0.0000
     24 H3          0.0415   -3.8808   -4.7845 H         1 <0>         0.0000
     25 H4         -1.6607   -5.1002   -1.2291 H         1 <0>         0.0000
     26 H5          0.4040   -6.3844    2.3286 H         1 <0>         0.0000
     27 H6          0.0286    0.5973   -2.5372 H         1 <0>         0.0000
     28 H7         -3.4610   -4.1457    0.1639 H         1 <0>         0.0000
     29 H8         -1.3976   -5.4061    3.7241 H         1 <0>         0.0000
     30 H9          1.1632   -7.1880    0.2210 H         1 <0>         0.0000
     31 H10         0.8525   -5.3101   -3.2386 H         1 <0>         0.0000
@<TRIPOS>BOND
     1    1    2 ar
     2    1    3 ar
     3    1   22 1
     4    2    6 ar
     5    2   23 1
     6    3    9 ar
     7    3   24 1
     8    4    7 ar
     9    4   10 ar
    10    4   25 1
    11    5    8 ar
    12    5   10 ar
    13    5   26 1
    14    6   11 ar
    15    6   27 1
    16    7   12 ar
    17    7   28 1
    18    8   12 ar
    19    8   29 1
    20    9   11 ar
    21    9   13 1
    22   10   14 1
    23   11   20 1
    24   12   21 1
    25   13   15 2
    26   13   17 1
    27   14   16 2
    28   14   30 1
    29   15   20 1
    30   16   17 1
    31   17   31 1
    32   18   20 2
    33   19   20 2
