@<TRIPOS>MOLECULE
*****
   22    23     0     0     0
SMALL
NO_CHARGES

@<TRIPOS>ATOM
      1 C1          2.0674   -0.4112    0.4558 C.ar      1 <0>         0.0000
      2 C2          2.9859   -0.7834    1.4376 C.ar      1 <0>         0.0000
      3 C3          0.7734   -0.0118    0.8206 C.ar      1 <0>         0.0000
      4 C4          2.5779   -0.7446    2.7727 C.ar      1 <0>         0.0000
      5 C5          0.3408    0.0349    2.1580 C.ar      1 <0>         0.0000
      6 C6          1.2814   -0.3441    3.1356 C.ar      1 <0>         0.0000
      7 C7          3.2995   -1.0699    4.0093 C.2       1 <0>         0.0000
      8 C8         -1.0354    0.4614    2.5241 C.2       1 <0>         0.0000
      9 C9          2.2757   -0.8120    5.1218 C.3       1 <0>         0.0000
     10 C10        -3.1216    1.2049    1.7015 C.3       1 <0>         0.0000
     11 O1          4.4460   -1.4584    4.1676 O.2       1 <0>         0.0000
     12 O2         -1.4717    0.5250    3.6576 O.2       1 <0>         0.0000
     13 O3          1.0607   -0.3668    4.4731 O.3       1 <0>         0.0000
     14 O4         -1.7715    0.7808    1.4260 O.3       1 <0>         0.0000
     15 H1          2.3465   -0.4279   -0.5933 H         1 <0>         0.0000
     16 H2          3.9962   -1.0979    1.1903 H         1 <0>         0.0000
     17 H3          0.0659    0.2758    0.0509 H         1 <0>         0.0000
     18 H4          2.0577   -1.7223    5.6866 H         1 <0>         0.0000
     19 H5          2.6142   -0.0294    5.8060 H         1 <0>         0.0000
     20 H6         -3.5638    1.4146    0.7275 H         1 <0>         0.0000
     21 H7         -3.1197    2.1016    2.3255 H         1 <0>         0.0000
     22 H8         -3.6732    0.4129    2.2134 H         1 <0>         0.0000
@<TRIPOS>BOND
     1    1    2 ar
     2    1    3 ar
     3    1   15 1
     4    2    4 ar
     5    2   16 1
     6    3    5 ar
     7    3   17 1
     8    4    6 ar
     9    4    7 1
    10    5    6 ar
    11    5    8 1
    12    6   13 1
    13    7    9 1
    14    7   11 2
    15    8   12 2
    16    8   14 1
    17    9   13 1
    18    9   18 1
    19    9   19 1
    20   10   14 1
    21   10   20 1
    22   10   21 1
    23   10   22 1
