@<TRIPOS>MOLECULE
*****
   42    45     0     0     0
SMALL
NO_CHARGES

@<TRIPOS>ATOM
      1 C1         -1.5790   -5.9088   -5.0448 C.ar      1 <0>         0.0000
      2 C2         -0.9226   -6.4068   -3.9172 C.ar      1 <0>         0.0000
      3 C3         -2.8292   -5.2870   -4.9031 C.ar      1 <0>         0.0000
      4 C4         -1.4824   -6.2930   -2.6362 C.ar      1 <0>         0.0000
      5 C5         -2.0176   -6.1705    2.9116 C.ar      1 <0>         0.0000
      6 C6         -0.8375   -4.2109    2.1609 C.ar      1 <0>         0.0000
      7 C7         -3.3913   -5.1651   -3.6393 C.ar      1 <0>         0.0000
      8 C8         -1.5500   -5.3757    1.8631 C.ar      1 <0>         0.0000
      9 C9         -2.7177   -5.6502   -2.5016 C.ar      1 <0>         0.0000
     10 C10        -1.7939   -5.8158    4.2416 C.ar      1 <0>         0.0000
     11 C11        -1.1101   -4.6183    4.5547 C.ar      1 <0>         0.0000
     12 C12        -0.6298   -3.8423    3.4898 C.ar      1 <0>         0.0000
     13 C13        -3.2511   -5.5091   -0.0048 C.2       1 <0>         0.0000
     14 C14        -4.7032   -4.5368   -3.2269 C.3       1 <0>         0.0000
     15 C15        -1.8549   -5.7583    7.4368 C.3       1 <0>         0.0000
     16 C16        -4.8840   -5.0340   -1.7794 C.3       1 <0>         0.0000
     17 C17        -1.5168   -6.8267    6.3971 C.3       1 <0>         0.0000
     18 C18        -1.9455   -4.3829    6.7753 C.3       1 <0>         0.0000
     19 C19        -1.8031   -5.7606    0.4259 C.3       1 <0>         0.0000
     20 N1         -3.5167   -5.4205   -1.3544 N.am      1 <0>         0.0000
     21 O1         -4.1592   -5.3691    0.8116 O.2       1 <0>         0.0000
     22 O2         -2.3007   -6.6659    5.2004 O.3       1 <0>         0.0000
     23 O3         -0.8716   -4.1869    5.8345 O.3       1 <0>         0.0000
     24 Cl1         0.2377   -2.3602    3.8420 Cl        1 <0>         0.0000
     25 H1         -1.1295   -6.0137   -6.0282 H         1 <0>         0.0000
     26 H2          0.0367   -6.9058   -4.0269 H         1 <0>         0.0000
     27 H3         -3.3570   -4.9074   -5.7749 H         1 <0>         0.0000
     28 H4         -0.9581   -6.7218   -1.7932 H         1 <0>         0.0000
     29 H5         -2.5716   -7.0838    2.7180 H         1 <0>         0.0000
     30 H6         -0.4529   -3.5750    1.3693 H         1 <0>         0.0000
     31 H7         -4.6298   -3.4429   -3.2601 H         1 <0>         0.0000
     32 H8         -5.5371   -4.8316   -3.8690 H         1 <0>         0.0000
     33 H9         -2.8122   -5.9794    7.9222 H         1 <0>         0.0000
     34 H10        -1.0795   -5.7660    8.2112 H         1 <0>         0.0000
     35 H11        -5.2777   -4.2850   -1.0937 H         1 <0>         0.0000
     36 H12        -5.5364   -5.9128   -1.7300 H         1 <0>         0.0000
     37 H13        -0.4532   -6.7955    6.1398 H         1 <0>         0.0000
     38 H14        -1.7512   -7.8274    6.7680 H         1 <0>         0.0000
     39 H15        -2.9026   -4.2591    6.2594 H         1 <0>         0.0000
     40 H16        -1.8424   -3.5793    7.5082 H         1 <0>         0.0000
     41 H17        -1.1233   -5.2155   -0.2332 H         1 <0>         0.0000
     42 H18        -1.5957   -6.8278    0.2820 H         1 <0>         0.0000
@<TRIPOS>BOND
     1    1    2 ar
     2    1    3 ar
     3    1   25 1
     4    2    4 ar
     5    2   26 1
     6    3    7 ar
     7    3   27 1
     8    4    9 ar
     9    4   28 1
    10    5    8 ar
    11    5   10 ar
    12    5   29 1
    13    6    8 ar
    14    6   12 ar
    15    6   30 1
    16    7    9 ar
    17    7   14 1
    18    8   19 1
    19    9   20 1
    20   10   11 ar
    21   10   22 1
    22   11   12 ar
    23   11   23 1
    24   12   24 1
    25   13   19 1
    26   13   20 am
    27   13   21 2
    28   14   16 1
    29   14   31 1
    30   14   32 1
    31   15   17 1
    32   15   18 1
    33   15   33 1
    34   15   34 1
    35   16   20 1
    36   16   35 1
    37   16   36 1
    38   17   22 1
    39   17   37 1
    40   17   38 1
    41   18   23 1
    42   18   39 1
    43   18   40 1
    44   19   41 1
    45   19   42 1
