@<TRIPOS>MOLECULE
*****
   28    29     0     0     0
SMALL
NO_CHARGES

@<TRIPOS>ATOM
      1 C1          1.5087   -1.8163   -5.8062 C.2       1 <0>         0.0000
      2 C2          2.4167   -0.5771   -2.3546 C.ar      1 <0>         0.0000
      3 C3         -0.3706   -0.4371   -2.2816 C.ar      1 <0>         0.0000
      4 C4          0.1536   -1.7271   -5.6943 C.2       1 <0>         0.0000
      5 C5          1.6845   -0.9567   -3.4887 C.ar      1 <0>         0.0000
      6 C6          0.3702   -0.0303   -1.1729 C.ar      1 <0>         0.0000
      7 C7          0.2753   -0.8889   -3.4419 C.ar      1 <0>         0.0000
      8 C8          2.3886   -1.4369   -4.7094 C.2       1 <0>         0.0000
      9 C9          1.7870   -0.1171   -1.2055 C.ar      1 <0>         0.0000
     10 C10        -0.3388    0.5251    0.0187 C.2       1 <0>         0.0000
     11 C11         3.1113    1.4735   -0.0536 C.3       1 <0>         0.0000
     12 C12        -2.3510    0.5150    1.2560 C.3       1 <0>         0.0000
     13 N1         -0.4585   -1.2783   -4.5561 N.pl3     1 <0>         0.0000
     14 O1          3.6235   -1.4995   -4.7697 O.2       1 <0>         0.0000
     15 O2          0.1012    1.3767    0.7672 O.2       1 <0>         0.0000
     16 O3          2.5310    0.1592   -0.0867 O.3       1 <0>         0.0000
     17 O4         -1.5791   -0.0109    0.1562 O.3       1 <0>         0.0000
     18 H1          1.9561   -2.1754   -6.7261 H         1 <0>         0.0000
     19 H2          3.4982   -0.6678   -2.3874 H         1 <0>         0.0000
     20 H3         -1.4549   -0.3916   -2.2407 H         1 <0>         0.0000
     21 H4         -0.5150   -2.0064   -6.5030 H         1 <0>         0.0000
     22 H5          3.7040    1.5183    0.8616 H         1 <0>         0.0000
     23 H6          2.3266    2.2348   -0.0214 H         1 <0>         0.0000
     24 H7          3.7626    1.6308   -0.9222 H         1 <0>         0.0000
     25 H8         -3.3013   -0.0176    1.2241 H         1 <0>         0.0000
     26 H9         -2.5049    1.5900    1.1347 H         1 <0>         0.0000
     27 H10        -1.8371    0.3307    2.2020 H         1 <0>         0.0000
     28 H11        -1.4676   -1.2326   -4.5149 H         1 <0>         0.0000
@<TRIPOS>BOND
     1    1    4 2
     2    1    8 1
     3    1   18 1
     4    2    5 ar
     5    2    9 ar
     6    2   19 1
     7    3    6 ar
     8    3    7 ar
     9    3   20 1
    10    4   13 1
    11    4   21 1
    12    5    7 ar
    13    5    8 1
    14    6    9 ar
    15    6   10 1
    16    7   13 1
    17    8   14 2
    18    9   16 1
    19   10   15 2
    20   10   17 1
    21   11   16 1
    22   11   22 1
    23   11   23 1
    24   11   24 1
    25   12   17 1
    26   12   25 1
    27   12   26 1
    28   12   27 1
    29   13   28 1
