@<TRIPOS>MOLECULE
*****
   38    40     0     0     0
SMALL
NO_CHARGES

@<TRIPOS>ATOM
      1 C1         -0.9821    2.1857   -6.9144 C.2       1 <0>         0.0000
      2 C2          0.9607   -0.9988   -1.3918 C.2       1 <0>         0.0000
      3 C3         -0.1361   -0.1461   -1.4479 C.2       1 <0>         0.0000
      4 C4          0.7513    1.5871   -5.6623 C.2       1 <0>         0.0000
      5 C5          0.0996    0.3754   -5.6793 C.2       1 <0>         0.0000
      6 C6          0.4988   -0.7904   -3.4940 C.2       1 <0>         0.0000
      7 C7          1.7741   -1.4649   -0.2384 C.2       1 <0>         0.0000
      8 C8         -1.0004    0.5618   -0.4478 C.3       1 <0>         0.0000
      9 C9         -0.0445   -0.8170    1.4420 C.3       1 <0>         0.0000
     10 C10        -0.4673    0.6051    0.9978 C.3       1 <0>         0.0000
     11 C11         2.0399    1.8810   -4.9500 C.3       1 <0>         0.0000
     12 C12        -1.6214    1.0567    1.9105 C.3       1 <0>         0.0000
     13 C13         0.7029    1.5932    1.1196 C.3       1 <0>         0.0000
     14 C14         0.4947   -0.9079   -4.9921 C.3       1 <0>         0.0000
     15 N1          0.1248    2.6008   -6.3688 N.2       1 <0>         0.0000
     16 N2          1.3374   -1.3773   -2.6759 N.2       1 <0>         0.0000
     17 N3         -0.4148   -0.0311   -2.7971 N.pl3     1 <0>         0.0000
     18 N4          1.2868   -1.2350    1.0299 N.am      1 <0>         0.0000
     19 O1          2.8670   -2.0082   -0.3926 O.2       1 <0>         0.0000
     20 S1         -1.3661    0.5110   -6.6160 S.3       1 <0>         0.0000
     21 H1         -1.6329    2.8078   -7.5200 H         1 <0>         0.0000
     22 H2         -1.1740    1.5914   -0.7881 H         1 <0>         0.0000
     23 H3         -1.9863    0.0757   -0.4409 H         1 <0>         0.0000
     24 H4         -0.0444   -0.8496    2.5352 H         1 <0>         0.0000
     25 H5         -0.8047   -1.5363    1.1049 H         1 <0>         0.0000
     26 H6          2.7853    2.2577   -5.6577 H         1 <0>         0.0000
     27 H7          1.8872    2.6586   -4.1940 H         1 <0>         0.0000
     28 H8          2.4425    0.9965   -4.4532 H         1 <0>         0.0000
     29 H9         -1.2706    1.2105    2.9367 H         1 <0>         0.0000
     30 H10        -2.4257    0.3119    1.9369 H         1 <0>         0.0000
     31 H11        -2.0527    2.0011    1.5608 H         1 <0>         0.0000
     32 H12         1.1276    1.5703    2.1291 H         1 <0>         0.0000
     33 H13         0.3578    2.6145    0.9234 H         1 <0>         0.0000
     34 H14         1.5071    1.3637    0.4172 H         1 <0>         0.0000
     35 H15        -0.1758   -1.7197   -5.2965 H         1 <0>         0.0000
     36 H16         1.5005   -1.2143   -5.2922 H         1 <0>         0.0000
     37 H17        -1.1213    0.5681   -3.2077 H         1 <0>         0.0000
     38 H18         1.9096   -1.5936    1.7431 H         1 <0>         0.0000
@<TRIPOS>BOND
     1    1   15 2
     2    1   20 1
     3    1   21 1
     4    2    3 2
     5    2    7 1
     6    2   16 1
     7    3    8 1
     8    3   17 1
     9    4    5 2
    10    4   11 1
    11    4   15 1
    12    5   14 1
    13    5   20 1
    14    6   14 1
    15    6   16 2
    16    6   17 1
    17    7   18 am
    18    7   19 2
    19    8   10 1
    20    8   22 1
    21    8   23 1
    22    9   10 1
    23    9   18 1
    24    9   24 1
    25    9   25 1
    26   10   12 1
    27   10   13 1
    28   11   26 1
    29   11   27 1
    30   11   28 1
    31   12   29 1
    32   12   30 1
    33   12   31 1
    34   13   32 1
    35   13   33 1
    36   13   34 1
    37   14   35 1
    38   14   36 1
    39   17   37 1
    40   18   38 1
