@<TRIPOS>MOLECULE
*****
   42    45     0     0     0
SMALL
NO_CHARGES

@<TRIPOS>ATOM
      1 C1         -0.7076    0.0620   -0.2720 C.ar      1 <0>         0.0000
      2 C2         -0.2419   -1.0703    0.4017 C.ar      1 <0>         0.0000
      3 C3         -2.0114    0.0776   -0.7916 C.ar      1 <0>         0.0000
      4 C4         -1.0469   -2.2075    0.5605 C.ar      1 <0>         0.0000
      5 C5         -0.1368   -5.3521    2.1627 C.ar      1 <0>         0.0000
      6 C6         -2.4216   -5.4364    2.9220 C.ar      1 <0>         0.0000
      7 C7         -2.8159   -1.0452   -0.6452 C.ar      1 <0>         0.0000
      8 C8         -1.5032   -5.3380    1.8708 C.ar      1 <0>         0.0000
      9 C9         -2.3292   -2.1937    0.0061 C.ar      1 <0>         0.0000
     10 C10         0.3254   -5.4651    3.4761 C.ar      1 <0>         0.0000
     11 C11        -0.5922   -5.5954    4.5416 C.ar      1 <0>         0.0000
     12 C12        -1.9615   -5.5635    4.2313 C.ar      1 <0>         0.0000
     13 C13        -3.3092   -4.5339    0.2669 C.2       1 <0>         0.0000
     14 C14        -4.2381   -1.2833   -1.1015 C.3       1 <0>         0.0000
     15 C15         2.2199   -5.7480    6.0328 C.3       1 <0>         0.0000
     16 C16        -4.6406   -2.5497   -0.3192 C.3       1 <0>         0.0000
     17 C17         2.1881   -4.8046    4.8308 C.3       1 <0>         0.0000
     18 C18         0.9246   -6.5563    6.1115 C.3       1 <0>         0.0000
     19 C19        -1.9659   -5.2304    0.4264 C.3       1 <0>         0.0000
     20 N1         -3.3466   -3.1804    0.0348 N.am      1 <0>         0.0000
     21 O1         -4.3570   -5.1836    0.3188 O.2       1 <0>         0.0000
     22 O2          1.6917   -5.4667    3.6509 O.3       1 <0>         0.0000
     23 O3         -0.2247   -5.7258    5.8557 O.3       1 <0>         0.0000
     24 Cl1        -3.1228   -5.7125    5.5336 Cl        1 <0>         0.0000
     25 H1         -0.0694    0.9351   -0.3755 H         1 <0>         0.0000
     26 H2          0.7564   -1.0708    0.8316 H         1 <0>         0.0000
     27 H3         -2.3917    0.9620   -1.2975 H         1 <0>         0.0000
     28 H4         -0.6809   -3.0436    1.1406 H         1 <0>         0.0000
     29 H5          0.6075   -5.2578    1.3762 H         1 <0>         0.0000
     30 H6         -3.4886   -5.4348    2.7273 H         1 <0>         0.0000
     31 H7         -4.9010   -0.4411   -0.8872 H         1 <0>         0.0000
     32 H8         -4.2691   -1.4640   -2.1830 H         1 <0>         0.0000
     33 H9          3.0643   -6.4425    5.9583 H         1 <0>         0.0000
     34 H10         2.3597   -5.1510    6.9411 H         1 <0>         0.0000
     35 H11        -5.1813   -2.3014    0.6010 H         1 <0>         0.0000
     36 H12        -5.2448   -3.2571   -0.8854 H         1 <0>         0.0000
     37 H13         1.5663   -3.9285    5.0401 H         1 <0>         0.0000
     38 H14         3.1919   -4.4600    4.5713 H         1 <0>         0.0000
     39 H15         0.9360   -7.3847    5.3964 H         1 <0>         0.0000
     40 H16         0.7707   -6.9673    7.1118 H         1 <0>         0.0000
     41 H17        -1.1931   -4.7511   -0.1797 H         1 <0>         0.0000
     42 H18        -2.1242   -6.2364    0.0258 H         1 <0>         0.0000
@<TRIPOS>BOND
     1    1    2 ar
     2    1    3 ar
     3    1   25 1
     4    2    4 ar
     5    2   26 1
     6    3    7 ar
     7    3   27 1
     8    4    9 ar
     9    4   28 1
    10    5    8 ar
    11    5   10 ar
    12    5   29 1
    13    6    8 ar
    14    6   12 ar
    15    6   30 1
    16    7    9 ar
    17    7   14 1
    18    8   19 1
    19    9   20 1
    20   10   11 ar
    21   10   22 1
    22   11   12 ar
    23   11   23 1
    24   12   24 1
    25   13   19 1
    26   13   20 am
    27   13   21 2
    28   14   16 1
    29   14   31 1
    30   14   32 1
    31   15   17 1
    32   15   18 1
    33   15   33 1
    34   15   34 1
    35   16   20 1
    36   16   35 1
    37   16   36 1
    38   17   22 1
    39   17   37 1
    40   17   38 1
    41   18   23 1
    42   18   39 1
    43   18   40 1
    44   19   41 1
    45   19   42 1
