@<TRIPOS>MOLECULE
*****
   32    34     0     0     0
SMALL
NO_CHARGES

@<TRIPOS>ATOM
      1 C1          7.7934   -3.6343    4.8228 C.1       1 <0>         0.0000
      2 C2          0.2590   -1.3998    2.6967 C.ar      1 <0>         0.0000
      3 C3          0.2089   -1.0870    1.3353 C.ar      1 <0>         0.0000
      4 C4          1.4578   -1.8418    3.2521 C.ar      1 <0>         0.0000
      5 C5          1.3530   -1.2285    0.5469 C.ar      1 <0>         0.0000
      6 C6          7.1671   -0.1479    1.6526 C.2       1 <0>         0.0000
      7 C7          7.5804    0.8420    0.8101 C.2       1 <0>         0.0000
      8 C8          9.4907   -0.3072    1.8758 C.2       1 <0>         0.0000
      9 C9          2.6136   -1.9734    2.4620 C.ar      1 <0>         0.0000
     10 C10         8.2683   -0.8337    2.2872 C.2       1 <0>         0.0000
     11 C11         2.5717   -1.6712    1.0818 C.ar      1 <0>         0.0000
     12 C12         3.8420   -2.4447    3.1257 C.2       1 <0>         0.0000
     13 C13         5.8714   -2.6617    3.6689 C.2       1 <0>         0.0000
     14 C14         8.2812   -1.9087    3.2522 C.2       1 <0>         0.0000
     15 C15         7.3181   -2.6729    3.8602 C.2       1 <0>         0.0000
     16 C16         3.7631   -1.8275    0.1639 C.3       1 <0>         0.0000
     17 N1          8.2125   -4.4005    5.5942 N.1       1 <0>         0.0000
     18 N2          5.1209   -2.0280    2.8041 N.2       1 <0>         0.0000
     19 N3          3.8031   -3.2993    4.1310 N.2       1 <0>         0.0000
     20 O1          5.1474   -3.4444    4.5007 O.3       1 <0>         0.0000
     21 S1          9.3159    0.9745    0.7530 S.3       1 <0>         0.0000
     22 H1         -0.6250   -1.2977    3.3200 H         1 <0>         0.0000
     23 H2         -0.7180   -0.7393    0.8863 H         1 <0>         0.0000
     24 H3          1.5161   -2.0840    4.3087 H         1 <0>         0.0000
     25 H4          1.3007   -0.9991   -0.5148 H         1 <0>         0.0000
     26 H5          6.1334   -0.4062    1.8300 H         1 <0>         0.0000
     27 H6          6.9704    1.5078    0.2127 H         1 <0>         0.0000
     28 H7         10.4767   -0.6238    2.1938 H         1 <0>         0.0000
     29 H8          9.2870   -2.1625    3.5796 H         1 <0>         0.0000
     30 H9          4.4769   -1.0081    0.2903 H         1 <0>         0.0000
     31 H10         4.3119   -2.7526    0.3562 H         1 <0>         0.0000
     32 H11         3.4372   -1.8321   -0.8796 H         1 <0>         0.0000
@<TRIPOS>BOND
     1    1   15 1
     2    1   17 3
     3    2    3 ar
     4    2    4 ar
     5    2   22 1
     6    3    5 ar
     7    3   23 1
     8    4    9 ar
     9    4   24 1
    10    5   11 ar
    11    5   25 1
    12    6    7 2
    13    6   10 1
    14    6   26 1
    15    7   21 1
    16    7   27 1
    17    8   10 2
    18    8   21 1
    19    8   28 1
    20    9   11 ar
    21    9   12 1
    22   10   14 1
    23   11   16 1
    24   12   18 1
    25   12   19 2
    26   13   15 1
    27   13   18 2
    28   13   20 1
    29   14   15 2
    30   14   29 1
    31   16   30 1
    32   16   31 1
    33   16   32 1
    34   19   20 1
