@<TRIPOS>MOLECULE
*****
   27    27     0     0     0
SMALL
NO_CHARGES

@<TRIPOS>ATOM
      1 C1          1.7361   -1.6501   -0.3916 C.ar      1 <0>         0.0000
      2 C2          0.6502   -1.2313    0.3809 C.ar      1 <0>         0.0000
      3 C3          3.0903   -1.7985    1.6017 C.ar      1 <0>         0.0000
      4 C4          2.9695   -1.9395    0.2042 C.ar      1 <0>         0.0000
      5 C5          2.0308   -1.3844    2.3979 C.ar      1 <0>         0.0000
      6 C6          0.7945   -1.0984    1.7683 C.ar      1 <0>         0.0000
      7 C7          4.1567   -2.3894   -0.5772 C.2       1 <0>         0.0000
      8 C8          2.1611   -1.2337    3.8927 C.3       1 <0>         0.0000
      9 C9          4.0246   -2.5397   -2.0852 C.3       1 <0>         0.0000
     10 C10        -2.3951    0.0259    3.1974 C.3       1 <0>         0.0000
     11 C11        -1.4899   -0.3871    2.0501 C.3       1 <0>         0.0000
     12 O1          5.2250   -2.6363   -0.0233 O.2       1 <0>         0.0000
     13 O2         -0.2047   -0.6969    2.6050 O.3       1 <0>         0.0000
     14 H1          1.6033   -1.7466   -1.4647 H         1 <0>         0.0000
     15 H2         -0.2942   -1.0134   -0.1038 H         1 <0>         0.0000
     16 H3          4.0521   -2.0260    2.0523 H         1 <0>         0.0000
     17 H4          1.9460   -0.2065    4.2059 H         1 <0>         0.0000
     18 H5          1.4479   -1.8779    4.4179 H         1 <0>         0.0000
     19 H6          3.1707   -1.4929    4.2202 H         1 <0>         0.0000
     20 H7          3.7449   -1.5890   -2.5517 H         1 <0>         0.0000
     21 H8          3.2504   -3.2714   -2.3402 H         1 <0>         0.0000
     22 H9          4.9812   -2.8719   -2.4902 H         1 <0>         0.0000
     23 H10        -2.4924   -0.7857    3.9241 H         1 <0>         0.0000
     24 H11        -1.9925    0.9041    3.7102 H         1 <0>         0.0000
     25 H12        -3.3912    0.2723    2.8159 H         1 <0>         0.0000
     26 H13        -1.3876    0.4248    1.3184 H         1 <0>         0.0000
     27 H14        -1.8887   -1.2694    1.5329 H         1 <0>         0.0000
@<TRIPOS>BOND
     1    1    2 ar
     2    1    4 ar
     3    1   14 1
     4    2    6 ar
     5    2   15 1
     6    3    4 ar
     7    3    5 ar
     8    3   16 1
     9    4    7 1
    10    5    6 ar
    11    5    8 1
    12    6   13 1
    13    7    9 1
    14    7   12 2
    15    8   17 1
    16    8   18 1
    17    8   19 1
    18    9   20 1
    19    9   21 1
    20    9   22 1
    21   10   11 1
    22   10   23 1
    23   10   24 1
    24   10   25 1
    25   11   13 1
    26   11   26 1
    27   11   27 1
