@<TRIPOS>MOLECULE
*****
   21    22     0     0     0
SMALL
NO_CHARGES

@<TRIPOS>ATOM
      1 C1         -0.4937    0.9806   -0.5442 C.ar      1 <0>         0.0000
      2 C2         -1.8657    0.9308   -0.4438 C.ar      1 <0>         0.0000
      3 C3          0.1759    2.1341   -1.0320 C.ar      1 <0>         0.0000
      4 C4         -2.7770    4.3348   -1.7137 C.ar      1 <0>         0.0000
      5 C5         -4.7183    3.0279   -1.0912 C.ar      1 <0>         0.0000
      6 C6         -1.9827    3.2265   -1.3293 C.ar      1 <0>         0.0000
      7 C7         -2.6389    2.0567   -0.8359 C.ar      1 <0>         0.0000
      8 C8         -0.5538    3.2428   -1.4198 C.ar      1 <0>         0.0000
      9 C9         -4.1417    4.2250   -1.5908 C.ar      1 <0>         0.0000
     10 C10         1.3983    4.4886   -2.0173 C.3       1 <0>         0.0000
     11 N1         -3.9999    1.9855   -0.7281 N.ar      1 <0>         0.0000
     12 O1         -0.0203    4.4037   -1.9024 O.3       1 <0>         0.0000
     13 Br1        -5.2947    5.6714   -2.0857 Br        1 <0>         0.0000
     14 H1          0.1026    0.1225   -0.2458 H         1 <0>         0.0000
     15 H2         -2.3857    0.0540   -0.0722 H         1 <0>         0.0000
     16 H3          1.2579    2.1271   -1.0935 H         1 <0>         0.0000
     17 H4         -2.3065    5.2351   -2.0915 H         1 <0>         0.0000
     18 H5         -5.8001    2.9478   -0.9963 H         1 <0>         0.0000
     19 H6          1.6059    5.4830   -2.4139 H         1 <0>         0.0000
     20 H7          1.7851    3.7307   -2.7088 H         1 <0>         0.0000
     21 H8          1.8817    4.3764   -1.0395 H         1 <0>         0.0000
@<TRIPOS>BOND
     1    1    2 ar
     2    1    3 ar
     3    1   14 1
     4    2    7 ar
     5    2   15 1
     6    3    8 ar
     7    3   16 1
     8    4    6 ar
     9    4    9 ar
    10    4   17 1
    11    5    9 ar
    12    5   11 ar
    13    5   18 1
    14    6    7 ar
    15    6    8 ar
    16    7   11 ar
    17    8   12 1
    18    9   13 1
    19   10   12 1
    20   10   19 1
    21   10   20 1
    22   10   21 1
