@<TRIPOS>MOLECULE
*****
   21    21     0     0     0
SMALL
NO_CHARGES

@<TRIPOS>ATOM
      1 C1          1.4924   -1.1329   -0.0454 C.ar      1 <0>         0.0000
      2 C2          0.7508   -0.1193    0.5670 C.ar      1 <0>         0.0000
      3 C3          2.5180   -1.7706    0.6553 C.ar      1 <0>         0.0000
      4 C4          1.0386    0.2502    1.8827 C.ar      1 <0>         0.0000
      5 C5          2.8317   -1.4186    1.9751 C.ar      1 <0>         0.0000
      6 C6          2.0671   -0.4011    2.5653 C.ar      1 <0>         0.0000
      7 C7          4.7899   -3.0352    1.9304 C.2       1 <0>         0.0000
      8 C8          3.9337   -2.1115    2.7577 C.3       1 <0>         0.0000
      9 N1          4.5714   -4.2906    1.7366 N.2       1 <0>         0.0000
     10 N2          5.8657   -2.4541    1.2566 N.pl3     1 <0>         0.0000
     11 O1          3.3463   -4.6938    2.3434 O.3       1 <0>         0.0000
     12 Cl1         2.3929    0.0873    4.2300 Cl        1 <0>         0.0000
     13 H1          1.2731   -1.4290   -1.0676 H         1 <0>         0.0000
     14 H2         -0.0489    0.3836    0.0300 H         1 <0>         0.0000
     15 H3          3.0879   -2.5598    0.1753 H         1 <0>         0.0000
     16 H4          0.4738    1.0327    2.3795 H         1 <0>         0.0000
     17 H5          4.5747   -1.3543    3.2224 H         1 <0>         0.0000
     18 H6          3.4846   -2.6878    3.5708 H         1 <0>         0.0000
     19 H7          6.3693   -1.7582    1.7961 H         1 <0>         0.0000
     20 H8          6.4876   -3.1405    0.8388 H         1 <0>         0.0000
     21 H9          3.3369   -5.6459    2.1586 H         1 <0>         0.0000
@<TRIPOS>BOND
     1    1    2 ar
     2    1    3 ar
     3    1   13 1
     4    2    4 ar
     5    2   14 1
     6    3    5 ar
     7    3   15 1
     8    4    6 ar
     9    4   16 1
    10    5    6 ar
    11    5    8 1
    12    6   12 1
    13    7    8 1
    14    7    9 2
    15    7   10 1
    16    8   17 1
    17    8   18 1
    18    9   11 1
    19   10   19 1
    20   10   20 1
    21   11   21 1
