@<TRIPOS>MOLECULE
*****
   26    26     0     0     0
SMALL
NO_CHARGES

@<TRIPOS>ATOM
      1 C1          1.9839   -0.8830   -0.0168 C.ar      1 <0>         0.0000
      2 C2          0.8534   -0.3077    0.5604 C.ar      1 <0>         0.0000
      3 C3          1.8653   -0.6511    2.7371 C.ar      1 <0>         0.0000
      4 C4          3.0613   -1.3673    0.7419 C.ar      1 <0>         0.0000
      5 C5          0.7917   -0.2074    1.9596 C.ar      1 <0>         0.0000
      6 C6          2.9991   -1.2182    2.1486 C.ar      1 <0>         0.0000
      7 C7          4.1554   -2.0613    0.0184 C.2       1 <0>         0.0000
      8 C8         -1.3730    0.8085    1.9035 C.3       1 <0>         0.0000
      9 C9          5.3513   -1.3966    2.6996 C.3       1 <0>         0.0000
     10 N1          4.4891   -3.2518    0.3996 N.2       1 <0>         0.0000
     11 N2          4.6855   -1.4200   -1.0903 N.pl3     1 <0>         0.0000
     12 O1          5.5776   -3.7230   -0.4122 O.3       1 <0>         0.0000
     13 O2         -0.2603    0.3264    2.6511 O.3       1 <0>         0.0000
     14 O3          3.9723   -1.5910    3.0335 O.3       1 <0>         0.0000
     15 H1          2.0238   -1.0012   -1.0959 H         1 <0>         0.0000
     16 H2          0.0424    0.0313   -0.0729 H         1 <0>         0.0000
     17 H3          1.8315   -0.5382    3.8156 H         1 <0>         0.0000
     18 H4         -2.0846    1.1862    2.6389 H         1 <0>         0.0000
     19 H5         -1.8428    0.0052    1.3230 H         1 <0>         0.0000
     20 H6         -1.0799    1.6233    1.2301 H         1 <0>         0.0000
     21 H7          5.8578   -1.1702    3.6412 H         1 <0>         0.0000
     22 H8          5.4765   -0.5520    2.0127 H         1 <0>         0.0000
     23 H9          5.7749   -2.2971    2.2516 H         1 <0>         0.0000
     24 H10         4.7089   -0.4097   -1.0408 H         1 <0>         0.0000
     25 H11         5.5217   -1.8510   -1.4686 H         1 <0>         0.0000
     26 H12         5.7057   -4.6215   -0.0713 H         1 <0>         0.0000
@<TRIPOS>BOND
     1    1    2 ar
     2    1    4 ar
     3    1   15 1
     4    2    5 ar
     5    2   16 1
     6    3    5 ar
     7    3    6 ar
     8    3   17 1
     9    4    6 ar
    10    4    7 1
    11    5   13 1
    12    6   14 1
    13    7   10 2
    14    7   11 1
    15    8   13 1
    16    8   18 1
    17    8   19 1
    18    8   20 1
    19    9   14 1
    20    9   21 1
    21    9   22 1
    22    9   23 1
    23   10   12 1
    24   11   24 1
    25   11   25 1
    26   12   26 1
