@<TRIPOS>MOLECULE
*****
   25    26     0     0     0
SMALL
NO_CHARGES

@<TRIPOS>ATOM
      1 C1         -1.2733   -4.9092    3.3350 C.ar      1 <0>         0.0000
      2 C2          0.0359   -5.2299    3.7058 C.ar      1 <0>         0.0000
      3 C3          0.6542   -5.3290    1.3527 C.ar      1 <0>         0.0000
      4 C4         -0.6542   -5.0055    0.9799 C.ar      1 <0>         0.0000
      5 C5         -1.6050   -4.8129    1.9907 C.ar      1 <0>         0.0000
      6 C6          0.9817   -5.4429    2.7028 C.ar      1 <0>         0.0000
      7 C7         -0.7534   -0.3532   -1.0861 C.3       1 <0>         0.0000
      8 C8          0.2163   -0.7683    0.0242 C.3       1 <0>         0.0000
      9 C9         -0.4783   -2.6547   -1.0040 C.3       1 <0>         0.0000
     10 C10        -1.5245   -3.7526   -0.8816 C.3       1 <0>         0.0000
     11 O1         -1.0145   -1.5832   -1.7832 O.3       1 <0>         0.0000
     12 O2         -0.1613   -2.1261    0.2697 O.3       1 <0>         0.0000
     13 O3         -0.9641   -4.9685   -0.3564 O.3       1 <0>         0.0000
     14 F1         -2.8892   -4.5301    1.6499 F         1 <0>         0.0000
     15 Br1         2.7818   -5.8947    3.1913 Br        1 <0>         0.0000
     16 H1         -2.0451   -4.7480    4.0815 H         1 <0>         0.0000
     17 H2          0.3059   -5.3172    4.7523 H         1 <0>         0.0000
     18 H3          1.3920   -5.4828    0.5730 H         1 <0>         0.0000
     19 H4         -1.6928    0.0402   -0.6812 H         1 <0>         0.0000
     20 H5         -0.3244    0.3708   -1.7848 H         1 <0>         0.0000
     21 H6          1.2617   -0.7153   -0.3097 H         1 <0>         0.0000
     22 H7          0.0989   -0.2084    0.9534 H         1 <0>         0.0000
     23 H8          0.4325   -3.0361   -1.4936 H         1 <0>         0.0000
     24 H9         -1.8808   -4.0087   -1.8806 H         1 <0>         0.0000
     25 H10        -2.3617   -3.3958   -0.2782 H         1 <0>         0.0000
@<TRIPOS>BOND
     1    1    2 ar
     2    1    5 ar
     3    1   16 1
     4    2    6 ar
     5    2   17 1
     6    3    4 ar
     7    3    6 ar
     8    3   18 1
     9    4    5 ar
    10    4   13 1
    11    5   14 1
    12    6   15 1
    13    7    8 1
    14    7   11 1
    15    7   19 1
    16    7   20 1
    17    8   12 1
    18    8   21 1
    19    8   22 1
    20    9   10 1
    21    9   12 1
    22    9   11 1
    23    9   23 1
    24   10   13 1
    25   10   24 1
    26   10   25 1
