@<TRIPOS>MOLECULE
*****
   46    50     0     0     0
SMALL
NO_CHARGES

@<TRIPOS>ATOM
      1 C1         -3.5700   -1.8228    4.2771 C.ar      1 <0>         0.0000
      2 C2          2.6770    0.2103    0.2613 C.ar      1 <0>         0.0000
      3 C3         -3.3600   -0.7775    3.3751 C.ar      1 <0>         0.0000
      4 C4          1.4898    0.7342    0.7705 C.ar      1 <0>         0.0000
      5 C5         -3.2507   -1.6697    5.6296 C.ar      1 <0>         0.0000
      6 C6          1.2246   -1.3255    2.0187 C.ar      1 <0>         0.0000
      7 C7          5.5461   -1.9078    0.7913 C.ar      1 <0>         0.0000
      8 C8         -2.4887    0.5955    5.1638 C.ar      1 <0>         0.0000
      9 C9          4.6960   -1.3248   -1.3713 C.ar      1 <0>         0.0000
     10 C10         6.8799   -2.0028   -1.2279 C.ar      1 <0>         0.0000
     11 C11         3.1691   -1.0617    0.6012 C.ar      1 <0>         0.0000
     12 C12         2.4136   -1.8662    1.4964 C.ar      1 <0>         0.0000
     13 C13         4.4725   -1.4592    0.0093 C.ar      1 <0>         0.0000
     14 C14        -2.8141    0.4410    3.8086 C.ar      1 <0>         0.0000
     15 C15         0.7612   -0.0555    1.6718 C.ar      1 <0>         0.0000
     16 C16         6.7430   -2.1676    0.1485 C.ar      1 <0>         0.0000
     17 C17        -2.7171   -0.4525    6.0552 C.ar      1 <0>         0.0000
     18 C18         2.7414   -3.2399    1.8964 C.2       1 <0>         0.0000
     19 C19        -1.2094    1.4650    2.0410 C.2       1 <0>         0.0000
     20 C20        -3.6676    2.1539    2.0488 C.3       1 <0>         0.0000
     21 C21        -2.9873    2.9468    3.1284 C.3       1 <0>         0.0000
     22 C22        -2.5128    1.5341    2.8275 C.3       1 <0>         0.0000
     23 N1          2.0414   -3.8924    2.8544 N.2       1 <0>         0.0000
     24 N2          5.8594   -1.5852   -1.9863 N.ar      1 <0>         0.0000
     25 N3          3.7026   -4.0269    1.3691 N.2       1 <0>         0.0000
     26 N4          2.5963   -5.1094    2.9142 N.2       1 <0>         0.0000
     27 N5          3.5895   -5.1923    2.0248 N.2       1 <0>         0.0000
     28 N6         -0.4555    0.3546    2.2765 N.am      1 <0>         0.0000
     29 O1         -0.9078    2.3677    1.2549 O.2       1 <0>         0.0000
     30 F1          7.8221   -2.5854    0.8699 F         1 <0>         0.0000
     31 Cl1        -2.3124   -0.2369    7.7543 Cl        1 <0>         0.0000
     32 H1         -3.9740   -2.7695    3.9290 H         1 <0>         0.0000
     33 H2          3.2669    0.8274   -0.4118 H         1 <0>         0.0000
     34 H3         -3.6028   -0.9060    2.3236 H         1 <0>         0.0000
     35 H4          1.1401    1.7183    0.4913 H         1 <0>         0.0000
     36 H5         -3.4028   -2.4788    6.3366 H         1 <0>         0.0000
     37 H6          0.6587   -1.9546    2.7014 H         1 <0>         0.0000
     38 H7          5.4489   -2.0576    1.8600 H         1 <0>         0.0000
     39 H8         -2.0518    1.5254    5.5144 H         1 <0>         0.0000
     40 H9          3.8785   -1.0043   -2.0147 H         1 <0>         0.0000
     41 H10         7.8293   -2.2173   -1.7160 H         1 <0>         0.0000
     42 H11        -4.6576    1.7558    2.2504 H         1 <0>         0.0000
     43 H12        -3.4574    2.4271    1.0202 H         1 <0>         0.0000
     44 H13        -2.3252    3.7470    2.8158 H         1 <0>         0.0000
     45 H14        -3.5179    3.0967    4.0638 H         1 <0>         0.0000
     46 H15        -0.8310   -0.3124    2.9392 H         1 <0>         0.0000
@<TRIPOS>BOND
     1    1    3 ar
     2    1    5 ar
     3    1   32 1
     4    2    4 ar
     5    2   11 ar
     6    2   33 1
     7    3   14 ar
     8    3   34 1
     9    4   15 ar
    10    4   35 1
    11    5   17 ar
    12    5   36 1
    13    6   12 ar
    14    6   15 ar
    15    6   37 1
    16    7   13 ar
    17    7   16 ar
    18    7   38 1
    19    8   14 ar
    20    8   17 ar
    21    8   39 1
    22    9   13 ar
    23    9   24 ar
    24    9   40 1
    25   10   16 ar
    26   10   24 ar
    27   10   41 1
    28   11   12 ar
    29   11   13 1
    30   12   18 1
    31   14   22 1
    32   15   28 1
    33   16   30 1
    34   17   31 1
    35   18   23 1
    36   18   25 2
    37   19   22 1
    38   19   28 am
    39   19   29 2
    40   20   21 1
    41   20   22 1
    42   20   42 1
    43   20   43 1
    44   21   22 1
    45   21   44 1
    46   21   45 1
    47   23   26 1
    48   25   27 1
    49   26   27 2
    50   28   46 1
