@<TRIPOS>MOLECULE
*****
   49    53     0     0     0
SMALL
NO_CHARGES

@<TRIPOS>ATOM
      1 C1         -2.9556   -1.8075    4.8550 C.ar      1 <0>         0.0000
      2 C2          2.3832    0.0104   -0.3857 C.ar      1 <0>         0.0000
      3 C3         -2.9162   -0.7910    3.8983 C.ar      1 <0>         0.0000
      4 C4          1.3250    0.5658    0.3327 C.ar      1 <0>         0.0000
      5 C5         -2.3777   -1.6213    6.1146 C.ar      1 <0>         0.0000
      6 C6          4.1318   -1.5596   -2.2893 C.ar      1 <0>         0.0000
      7 C7          1.3005   -1.4483    1.6800 C.ar      1 <0>         0.0000
      8 C8          5.2853   -2.1385   -0.2825 C.ar      1 <0>         0.0000
      9 C9         -1.7011    0.6186    5.4409 C.ar      1 <0>         0.0000
     10 C10         5.2934   -1.9008   -2.9836 C.ar      1 <0>         0.0000
     11 C11         2.9275   -1.2536   -0.1028 C.ar      1 <0>         0.0000
     12 C12         4.1113   -1.6785   -0.8926 C.ar      1 <0>         0.0000
     13 C13         2.3556   -2.0195    0.9477 C.ar      1 <0>         0.0000
     14 C14        -2.2857    0.4313    4.1802 C.ar      1 <0>         0.0000
     15 C15         0.7878   -0.1820    1.3907 C.ar      1 <0>         0.0000
     16 C16        -1.7608   -0.4005    6.3912 C.ar      1 <0>         0.0000
     17 C17         6.4011   -2.4635   -1.0569 C.ar      1 <0>         0.0000
     18 C18         2.7474   -3.3870    1.3087 C.2       1 <0>         0.0000
     19 C19        -1.0571    1.3781    2.0958 C.2       1 <0>         0.0000
     20 C20        -3.4540    2.1121    2.5784 C.3       1 <0>         0.0000
     21 C21        -2.5597    2.9210    3.4745 C.3       1 <0>         0.0000
     22 C22        -2.1738    1.4923    3.1267 C.3       1 <0>         0.0000
     23 C23         7.6509   -3.0194   -0.4184 C.3       1 <0>         0.0000
     24 N1          2.4230   -3.9374    2.5019 N.2       1 <0>         0.0000
     25 N2          6.4151   -2.3418   -2.4005 N.ar      1 <0>         0.0000
     26 N3          3.3959   -4.2663    0.5174 N.2       1 <0>         0.0000
     27 N4          2.8991   -5.1887    2.4391 N.2       1 <0>         0.0000
     28 N5          3.4763   -5.3879    1.2507 N.2       1 <0>         0.0000
     29 N6         -0.2789    0.2661    2.2133 N.am      1 <0>         0.0000
     30 O1         -0.9151    2.2503    1.2336 O.2       1 <0>         0.0000
     31 Cl1        -1.0318   -0.1429    7.9722 Cl        1 <0>         0.0000
     32 H1         -3.4283   -2.7574    4.6211 H         1 <0>         0.0000
     33 H2          2.8332    0.5989   -1.1814 H         1 <0>         0.0000
     34 H3         -3.3606   -0.9451    2.9185 H         1 <0>         0.0000
     35 H4          0.9324    1.5448    0.0954 H         1 <0>         0.0000
     36 H5         -2.3965   -2.4080    6.8618 H         1 <0>         0.0000
     37 H6          3.2492   -1.2300   -2.8308 H         1 <0>         0.0000
     38 H7          0.8780   -2.0467    2.4836 H         1 <0>         0.0000
     39 H8          5.3215   -2.2644    0.7939 H         1 <0>         0.0000
     40 H9         -1.1960    1.5514    5.6717 H         1 <0>         0.0000
     41 H10         5.3215   -1.8181   -4.0708 H         1 <0>         0.0000
     42 H11        -4.3881    1.7382    2.9873 H         1 <0>         0.0000
     43 H12        -3.4522    2.3536    1.5208 H         1 <0>         0.0000
     44 H13        -1.9643    3.7002    3.0108 H         1 <0>         0.0000
     45 H14        -2.8888    3.1064    4.4925 H         1 <0>         0.0000
     46 H15         7.6637   -4.1112   -0.5187 H         1 <0>         0.0000
     47 H16         8.5426   -2.6276   -0.9166 H         1 <0>         0.0000
     48 H17         7.6974   -2.7842    0.6486 H         1 <0>         0.0000
     49 H18        -0.5155   -0.3717    2.9631 H         1 <0>         0.0000
@<TRIPOS>BOND
     1    1    3 ar
     2    1    5 ar
     3    1   32 1
     4    2    4 ar
     5    2   11 ar
     6    2   33 1
     7    3   14 ar
     8    3   34 1
     9    4   15 ar
    10    4   35 1
    11    5   16 ar
    12    5   36 1
    13    6   10 ar
    14    6   12 ar
    15    6   37 1
    16    7   13 ar
    17    7   15 ar
    18    7   38 1
    19    8   12 ar
    20    8   17 ar
    21    8   39 1
    22    9   14 ar
    23    9   16 ar
    24    9   40 1
    25   10   25 ar
    26   10   41 1
    27   11   12 1
    28   11   13 ar
    29   13   18 1
    30   14   22 1
    31   15   29 1
    32   16   31 1
    33   17   23 1
    34   17   25 ar
    35   18   24 1
    36   18   26 2
    37   19   22 1
    38   19   29 am
    39   19   30 2
    40   20   21 1
    41   20   22 1
    42   20   42 1
    43   20   43 1
    44   21   22 1
    45   21   44 1
    46   21   45 1
    47   23   46 1
    48   23   47 1
    49   23   48 1
    50   24   27 1
    51   26   28 1
    52   27   28 2
    53   29   49 1
