@<TRIPOS>MOLECULE
*****
   64    69     0     0     0
SMALL
NO_CHARGES

@<TRIPOS>ATOM
      1 C1          9.8242   -4.9965    1.2640 C.ar      1 <0>         0.0000
      2 C2          8.8362   -4.0842    0.8792 C.ar      1 <0>         0.0000
      3 C3          9.4514   -6.2356    1.7981 C.ar      1 <0>         0.0000
      4 C4          7.4853   -4.4107    1.0239 C.ar      1 <0>         0.0000
      5 C5          8.1025   -6.5576    1.9542 C.ar      1 <0>         0.0000
      6 C6          4.5723   -9.4263    0.5475 C.ar      1 <0>         0.0000
      7 C7          6.3924   -8.1718   -0.4233 C.ar      1 <0>         0.0000
      8 C8          4.9196  -10.5272   -0.2336 C.ar      1 <0>         0.0000
      9 C9          6.7315   -9.2776   -1.2023 C.ar      1 <0>         0.0000
     10 C10         3.9148   -3.5259    3.8412 C.2       1 <0>         0.0000
     11 C11         4.9787   -4.0527    3.1688 C.2       1 <0>         0.0000
     12 C12         5.3121   -8.2323    0.4752 C.ar      1 <0>         0.0000
     13 C13         7.1002   -5.6514    1.5639 C.ar      1 <0>         0.0000
     14 C14         6.0077  -10.4760   -1.1178 C.ar      1 <0>         0.0000
     15 C15         4.9134   -7.0906    1.3114 C.2       1 <0>         0.0000
     16 C16         5.6816   -6.0020    1.7225 C.2       1 <0>         0.0000
     17 C17         2.6664   -4.2273    3.7719 C.2       1 <0>         0.0000
     18 C18         3.5502   -5.8727    2.4686 C.2       1 <0>         0.0000
     19 C19         0.3856   -2.3357    7.2400 C.2       1 <0>         0.0000
     20 C20         0.9896   -2.7065    8.5931 C.3       1 <0>         0.0000
     21 C21         0.4616   -4.1225    8.8707 C.3       1 <0>         0.0000
     22 C22         6.1476  -12.7416   -3.7961 C.3       1 <0>         0.0000
     23 C23         6.9544  -11.4891   -3.3594 C.3       1 <0>         0.0000
     24 C24         5.3097  -12.6108   -2.4957 C.3       1 <0>         0.0000
     25 C25         0.1828   -4.6870    7.4632 C.3       1 <0>         0.0000
     26 C26         6.4267  -11.6971   -1.9082 C.3       1 <0>         0.0000
     27 C27        -0.5713   -3.5445    5.3074 C.3       1 <0>         0.0000
     28 C28         0.3694   -4.3159    4.3903 C.3       1 <0>         0.0000
     29 N1          3.6167   -6.9979    1.7812 N.2       1 <0>         0.0000
     30 N2          2.4862   -5.3517    3.1219 N.2       1 <0>         0.0000
     31 N3          4.8017   -5.2098    2.4618 N.pl3     1 <0>         0.0000
     32 N4         -0.1122   -3.4905    6.6807 N.am      1 <0>         0.0000
     33 N5          7.3910  -12.5446   -1.1726 N.3       1 <0>         0.0000
     34 O1          0.3532   -1.2213    6.7303 O.2       1 <0>         0.0000
     35 O2          1.6462   -3.6535    4.4431 O.3       1 <0>         0.0000
     36 H1         10.8750   -4.7453    1.1468 H         1 <0>         0.0000
     37 H2          9.1163   -3.1238    0.4541 H         1 <0>         0.0000
     38 H3         10.2134   -6.9494    2.1004 H         1 <0>         0.0000
     39 H4          6.7222   -3.7123    0.6886 H         1 <0>         0.0000
     40 H5          7.8126   -7.5178    2.3710 H         1 <0>         0.0000
     41 H6          3.7186   -9.4681    1.2166 H         1 <0>         0.0000
     42 H7          6.9573   -7.2522   -0.5327 H         1 <0>         0.0000
     43 H8          4.3292  -11.4385   -0.1628 H         1 <0>         0.0000
     44 H9          7.5633   -9.2009   -1.8995 H         1 <0>         0.0000
     45 H10         3.9975   -2.6081    4.4100 H         1 <0>         0.0000
     46 H11         5.9685   -3.6112    3.1609 H         1 <0>         0.0000
     47 H12         2.0803   -2.6874    8.4835 H         1 <0>         0.0000
     48 H13         0.7207   -1.9653    9.3479 H         1 <0>         0.0000
     49 H14         1.1589   -4.7484    9.4323 H         1 <0>         0.0000
     50 H15        -0.4746   -4.0690    9.4343 H         1 <0>         0.0000
     51 H16         6.7635  -13.6426   -3.7934 H         1 <0>         0.0000
     52 H17         5.6049  -12.6747   -4.7427 H         1 <0>         0.0000
     53 H18         8.0407  -11.5148   -3.4879 H         1 <0>         0.0000
     54 H19         6.5566  -10.5721   -3.8028 H         1 <0>         0.0000
     55 H20         4.3829  -12.0544   -2.6605 H         1 <0>         0.0000
     56 H21         5.0907  -13.5266   -1.9387 H         1 <0>         0.0000
     57 H22         1.0603   -5.2140    7.0619 H         1 <0>         0.0000
     58 H23        -0.6640   -5.3819    7.4443 H         1 <0>         0.0000
     59 H24        -0.6676   -2.5108    4.9676 H         1 <0>         0.0000
     60 H25        -1.5600   -4.0198    5.2583 H         1 <0>         0.0000
     61 H26        -0.0067   -4.3131    3.3621 H         1 <0>         0.0000
     62 H27         0.4876   -5.3593    4.6955 H         1 <0>         0.0000
     63 H28         6.9695  -12.8196   -0.2841 H         1 <0>         0.0000
     64 H29         8.2029  -11.9754   -0.9286 H         1 <0>         0.0000
@<TRIPOS>BOND
     1    1    3 ar
     2    1    2 ar
     3    1   36 1
     4    2    4 ar
     5    2   37 1
     6    3    5 ar
     7    3   38 1
     8    4   13 ar
     9    4   39 1
    10    5   13 ar
    11    5   40 1
    12    6    8 ar
    13    6   12 ar
    14    6   41 1
    15    7    9 ar
    16    7   12 ar
    17    7   42 1
    18    8   14 ar
    19    8   43 1
    20    9   14 ar
    21    9   44 1
    22   10   11 2
    23   10   17 1
    24   10   45 1
    25   11   31 1
    26   11   46 1
    27   12   15 1
    28   13   16 1
    29   14   26 1
    30   15   16 2
    31   15   29 1
    32   16   31 1
    33   17   30 2
    34   17   35 1
    35   18   29 2
    36   18   30 1
    37   18   31 1
    38   19   20 1
    39   19   32 am
    40   19   34 2
    41   20   21 1
    42   20   47 1
    43   20   48 1
    44   21   25 1
    45   21   49 1
    46   21   50 1
    47   22   24 1
    48   22   23 1
    49   22   51 1
    50   22   52 1
    51   23   26 1
    52   23   53 1
    53   23   54 1
    54   24   26 1
    55   24   55 1
    56   24   56 1
    57   25   32 1
    58   25   57 1
    59   25   58 1
    60   26   33 1
    61   27   28 1
    62   27   32 1
    63   27   59 1
    64   27   60 1
    65   28   35 1
    66   28   61 1
    67   28   62 1
    68   33   63 1
    69   33   64 1
