@<TRIPOS>MOLECULE
*****
   70    71     0     0     0
SMALL
NO_CHARGES

@<TRIPOS>ATOM
      1 C1         -1.0471    3.2575   -0.4544 C.ar      1 <0>         0.0000
      2 C2          0.0036    3.6929    0.3711 C.ar      1 <0>         0.0000
      3 C3         -1.3026    1.8975   -0.5742 C.ar      1 <0>         0.0000
      4 C4          0.7828    2.7789    1.0792 C.ar      1 <0>         0.0000
      5 C5         -0.5153    0.9587    0.1183 C.ar      1 <0>         0.0000
      6 C6          0.5175    1.4120    0.9543 C.ar      1 <0>         0.0000
      7 C7         -0.7432   -0.4871   -0.0543 C.2       1 <0>         0.0000
      8 C8          0.3635   -1.4179    0.5012 C.3       1 <0>         0.0000
      9 C9          0.8318   -0.8119    1.8715 C.3       1 <0>         0.0000
     10 C10        -0.3121   -0.7728    2.8972 C.3       1 <0>         0.0000
     11 C11         6.7974   -2.3518    5.1468 C.3       1 <0>         0.0000
     12 C12         6.0352    1.2363    5.8755 C.3       1 <0>         0.0000
     13 C13         2.3516    0.2601   -3.4758 C.3       1 <0>         0.0000
     14 C14        -1.2623   -5.9826    0.3338 C.3       1 <0>         0.0000
     15 C15         1.5221   -1.3623   -0.5350 C.3       1 <0>         0.0000
     16 C16        -0.2465   -2.8352    0.6005 C.3       1 <0>         0.0000
     17 C17         2.0665   -1.5241    2.4577 C.3       1 <0>         0.0000
     18 C18         2.7030   -0.8121    3.6630 C.3       1 <0>         0.0000
     19 C19         5.6217   -1.8073    5.9448 C.3       1 <0>         0.0000
     20 C20         5.4713    0.4265    4.7167 C.3       1 <0>         0.0000
     21 C21         4.0214   -1.5021    4.0060 C.3       1 <0>         0.0000
     22 C22         1.1629   -1.8356   -1.9447 C.3       1 <0>         0.0000
     23 C23         0.7025   -3.9785    0.9746 C.3       1 <0>         0.0000
     24 N1          4.7459   -0.8326    5.1647 N.4       1 <0>         0.0000
     25 O1         -1.7067   -0.9310   -0.6650 O.2       1 <0>         0.0000
     26 O2          3.7999   -1.6313   -2.2919 O.2       1 <0>         0.0000
     27 O3          2.3501   -2.2620   -4.3070 O.2       1 <0>         0.0000
     28 O4          0.5117   -5.0831   -1.4324 O.2       1 <0>         0.0000
     29 O5          1.3447   -6.5097    0.5270 O.2       1 <0>         0.0000
     30 O6          1.3141    0.5479    1.6565 O.3       1 <0>         0.0000
     31 S1          2.5539   -1.4941   -3.0740 S.o2      1 <0>         0.0000
     32 S2          0.4387   -5.4882   -0.0179 S.o2      1 <0>         0.0000
     33 H1         -1.6511    3.9798   -0.9948 H         1 <0>         0.0000
     34 H2          0.2095    4.7554    0.4684 H         1 <0>         0.0000
     35 H3         -2.1014    1.5243   -1.2081 H         1 <0>         0.0000
     36 H4          1.5876    3.1083    1.7298 H         1 <0>         0.0000
     37 H5         -0.0286   -0.1561    3.7533 H         1 <0>         0.0000
     38 H6         -0.5443   -1.7778    3.2588 H         1 <0>         0.0000
     39 H7         -1.2273   -0.3489    2.4788 H         1 <0>         0.0000
     40 H8          6.4819   -2.8696    4.2379 H         1 <0>         0.0000
     41 H9          7.5191   -1.5758    4.8822 H         1 <0>         0.0000
     42 H10         7.3194   -3.0803    5.7726 H         1 <0>         0.0000
     43 H11         5.2652    1.4830    6.6143 H         1 <0>         0.0000
     44 H12         6.8624    0.7329    6.3805 H         1 <0>         0.0000
     45 H13         6.4203    2.1795    5.4797 H         1 <0>         0.0000
     46 H14         3.2100    0.5233   -4.0965 H         1 <0>         0.0000
     47 H15         1.4248    0.3894   -4.0364 H         1 <0>         0.0000
     48 H16         2.3528    0.8549   -2.5610 H         1 <0>         0.0000
     49 H17        -1.4379   -6.8812   -0.2609 H         1 <0>         0.0000
     50 H18        -1.3552   -6.2096    1.3970 H         1 <0>         0.0000
     51 H19        -1.9442   -5.1897    0.0244 H         1 <0>         0.0000
     52 H20         2.3627   -1.9730   -0.2053 H         1 <0>         0.0000
     53 H21         1.9024   -0.3388   -0.5674 H         1 <0>         0.0000
     54 H22        -0.6773   -3.0329   -0.3822 H         1 <0>         0.0000
     55 H23        -1.0976   -2.8205    1.2848 H         1 <0>         0.0000
     56 H24         1.7890   -2.5387    2.7475 H         1 <0>         0.0000
     57 H25         2.8272   -1.6045    1.6784 H         1 <0>         0.0000
     58 H26         2.8606    0.2376    3.4067 H         1 <0>         0.0000
     59 H27         2.0342   -0.8490    4.5312 H         1 <0>         0.0000
     60 H28         5.9558   -1.2795    6.8388 H         1 <0>         0.0000
     61 H29         4.9525   -2.6101    6.2622 H         1 <0>         0.0000
     62 H30         6.2484    0.1067    4.0221 H         1 <0>         0.0000
     63 H31         4.7394    1.0086    4.1562 H         1 <0>         0.0000
     64 H32         3.8501   -2.5403    4.2993 H         1 <0>         0.0000
     65 H33         4.7095   -1.4980    3.1592 H         1 <0>         0.0000
     66 H34         1.0254   -2.9192   -2.0088 H         1 <0>         0.0000
     67 H35         0.2808   -1.3515   -2.3706 H         1 <0>         0.0000
     68 H36         1.7512   -3.7732    0.7503 H         1 <0>         0.0000
     69 H37         0.6328   -4.2895    2.0198 H         1 <0>         0.0000
     70 H38         4.0199   -0.5275    5.8216 H         1 <0>         0.0000
@<TRIPOS>BOND
     1    1    2 ar
     2    1    3 ar
     3    1   33 1
     4    2    4 ar
     5    2   34 1
     6    3    5 ar
     7    3   35 1
     8    4    6 ar
     9    4   36 1
    10    5    6 ar
    11    5    7 1
    12    6   30 1
    13    7    8 1
    14    7   25 2
    15    8    9 1
    16    8   15 1
    17    8   16 1
    18    9   10 1
    19    9   17 1
    20    9   30 1
    21   10   37 1
    22   10   38 1
    23   10   39 1
    24   11   19 1
    25   11   40 1
    26   11   41 1
    27   11   42 1
    28   12   20 1
    29   12   43 1
    30   12   44 1
    31   12   45 1
    32   13   31 1
    33   13   46 1
    34   13   47 1
    35   13   48 1
    36   14   32 1
    37   14   49 1
    38   14   50 1
    39   14   51 1
    40   15   22 1
    41   15   52 1
    42   15   53 1
    43   16   23 1
    44   16   54 1
    45   16   55 1
    46   17   18 1
    47   17   56 1
    48   17   57 1
    49   18   21 1
    50   18   58 1
    51   18   59 1
    52   19   24 1
    53   19   60 1
    54   19   61 1
    55   20   24 1
    56   20   62 1
    57   20   63 1
    58   21   24 1
    59   21   64 1
    60   21   65 1
    61   22   31 1
    62   22   66 1
    63   22   67 1
    64   23   32 1
    65   23   68 1
    66   23   69 1
    67   24   70 1
    68   26   31 2
    69   27   31 2
    70   28   32 2
    71   29   32 2
