@<TRIPOS>MOLECULE
*****
   56    58     0     0     0
SMALL
NO_CHARGES

@<TRIPOS>ATOM
      1 C1          4.3534   -1.0435    0.0273 C.ar      1 <0>         0.0000
      2 C2          3.1051   -1.2148    0.6385 C.ar      1 <0>         0.0000
      3 C3         -2.8785    0.8290    0.3666 C.ar      1 <0>         0.0000
      4 C4         -2.1618    0.9490    2.6488 C.ar      1 <0>         0.0000
      5 C5          2.0199   -0.7735   -1.5032 C.ar      1 <0>         0.0000
      6 C6         -1.7367    0.1208    0.0224 C.ar      1 <0>         0.0000
      7 C7          4.4558   -0.7257   -1.3208 C.ar      1 <0>         0.0000
      8 C8         -3.1349    1.2126    1.6956 C.ar      1 <0>         0.0000
      9 C9         -0.9707    0.2681    2.3320 C.ar      1 <0>         0.0000
     10 C10         3.2781   -0.5932   -2.0948 C.ar      1 <0>         0.0000
     11 C11         1.9532   -1.0541   -0.1167 C.ar      1 <0>         0.0000
     12 C12        -0.7827   -0.2236    1.0204 C.ar      1 <0>         0.0000
     13 C13         0.7253   -0.7512   -2.2531 C.2       1 <0>         0.0000
     14 C14        -1.4858   -0.1757   -1.4403 C.3       1 <0>         0.0000
     15 C15        -4.4113    1.9334    2.0523 C.3       1 <0>         0.0000
     16 C16         7.3927    0.8839   -4.3067 C.3       1 <0>         0.0000
     17 C17         7.5423    2.9302   -2.8337 C.3       1 <0>         0.0000
     18 C18         1.2800    0.4274    3.2022 C.3       1 <0>         0.0000
     19 C19         2.5584    0.4887   -4.1641 C.3       1 <0>         0.0000
     20 C20         6.0464    1.0301   -2.1402 C.3       1 <0>         0.0000
     21 C21         5.8007   -0.4816   -1.9704 C.3       1 <0>         0.0000
     22 C22         7.3522    1.4065   -2.8628 C.3       1 <0>         0.0000
     23 O1          0.4240   -1.4156   -3.2171 O.2       1 <0>         0.0000
     24 O2          0.7819   -2.1343    1.9907 O.2       1 <0>         0.0000
     25 O3         -0.2798   -2.4524   -0.2954 O.2       1 <0>         0.0000
     26 O4         -0.0889    0.1407   -1.6306 O.3       1 <0>         0.0000
     27 O5          6.8010   -1.0816   -1.1365 O.3       1 <0>         0.0000
     28 O6         -0.1144    0.1384    3.3772 O.3       1 <0>         0.0000
     29 O7          3.4956   -0.2893   -3.4074 O.3       1 <0>         0.0000
     30 S1          0.3913   -1.5857    0.6866 S.o2      1 <0>         0.0000
     31 H1          5.2646   -1.1722    0.6005 H         1 <0>         0.0000
     32 H2          3.0320   -1.5189    1.6753 H         1 <0>         0.0000
     33 H3         -3.5823    1.1056   -0.4156 H         1 <0>         0.0000
     34 H4         -2.2755    1.2820    3.6766 H         1 <0>         0.0000
     35 H5         -1.6601   -1.2175   -1.7095 H         1 <0>         0.0000
     36 H6         -2.0907    0.4781   -2.0720 H         1 <0>         0.0000
     37 H7         -5.2716    1.2610    1.9576 H         1 <0>         0.0000
     38 H8         -4.3884    2.3070    3.0789 H         1 <0>         0.0000
     39 H9         -4.5868    2.7819    1.3826 H         1 <0>         0.0000
     40 H10         6.5516    1.2841   -4.8855 H         1 <0>         0.0000
     41 H11         8.3180    1.1900   -4.8064 H         1 <0>         0.0000
     42 H12         7.3368   -0.2081   -4.3601 H         1 <0>         0.0000
     43 H13         6.7283    3.4330   -3.3701 H         1 <0>         0.0000
     44 H14         7.5512    3.3111   -1.8067 H         1 <0>         0.0000
     45 H15         8.4848    3.2211   -3.3101 H         1 <0>         0.0000
     46 H16         1.8554   -0.4726    3.4171 H         1 <0>         0.0000
     47 H17         1.5350    1.2210    3.9113 H         1 <0>         0.0000
     48 H18         1.4951    0.7693    2.1863 H         1 <0>         0.0000
     49 H19         3.1537    1.0225   -4.9080 H         1 <0>         0.0000
     50 H20         2.0437    1.2130   -3.5236 H         1 <0>         0.0000
     51 H21         1.8284   -0.1540   -4.6582 H         1 <0>         0.0000
     52 H22         6.0405    1.4767   -1.1386 H         1 <0>         0.0000
     53 H23         5.2026    1.4592   -2.6916 H         1 <0>         0.0000
     54 H24         5.7975   -0.9668   -2.9528 H         1 <0>         0.0000
     55 H25         8.1980    0.9681   -2.3118 H         1 <0>         0.0000
     56 H26         7.6551   -0.9859   -1.5841 H         1 <0>         0.0000
@<TRIPOS>BOND
     1    1    2 ar
     2    1    7 ar
     3    1   31 1
     4    2   11 ar
     5    2   32 1
     6    3    6 ar
     7    3    8 ar
     8    3   33 1
     9    4    8 ar
    10    4    9 ar
    11    4   34 1
    12    5   10 ar
    13    5   11 ar
    14    5   13 1
    15    6   12 ar
    16    6   14 1
    17    7   10 ar
    18    7   21 1
    19    8   15 1
    20    9   12 ar
    21    9   28 1
    22   10   29 1
    23   11   30 1
    24   12   30 1
    25   13   23 2
    26   13   26 1
    27   14   26 1
    28   14   35 1
    29   14   36 1
    30   15   37 1
    31   15   38 1
    32   15   39 1
    33   16   22 1
    34   16   40 1
    35   16   41 1
    36   16   42 1
    37   17   22 1
    38   17   43 1
    39   17   44 1
    40   17   45 1
    41   18   28 1
    42   18   46 1
    43   18   47 1
    44   18   48 1
    45   19   29 1
    46   19   49 1
    47   19   50 1
    48   19   51 1
    49   20   21 1
    50   20   22 1
    51   20   52 1
    52   20   53 1
    53   21   27 1
    54   21   54 1
    55   22   55 1
    56   24   30 2
    57   25   30 2
    58   27   56 1
