@<TRIPOS>MOLECULE
*****
   61    65     0     0     0
SMALL
NO_CHARGES

@<TRIPOS>ATOM
      1 C1         -0.7923    4.8121    7.1722 C.ar      1 <0>         0.0000
      2 C2          0.3427    5.2688    6.4922 C.ar      1 <0>         0.0000
      3 C3         -6.7696    1.6571    2.8342 C.ar      1 <0>         0.0000
      4 C4         -5.5062    1.3971    2.3119 C.ar      1 <0>         0.0000
      5 C5         -2.0387    4.8420    6.5413 C.ar      1 <0>         0.0000
      6 C6          0.2391    5.7666    5.1891 C.ar      1 <0>         0.0000
      7 C7         -6.9756    2.7656    3.6904 C.ar      1 <0>         0.0000
      8 C8         -4.4763    2.2797    2.6761 C.ar      1 <0>         0.0000
      9 C9         -0.4260    0.2152    0.1020 C.ar      1 <0>         0.0000
     10 C10        -2.1739    5.3326    5.2365 C.ar      1 <0>         0.0000
     11 C11        -1.0186    5.7898    4.5986 C.ar      1 <0>         0.0000
     12 C12        -3.0719    2.4519    2.4392 C.2       1 <0>         0.0000
     13 C13         0.0101    1.2436    0.9243 C.ar      1 <0>         0.0000
     14 C14        -4.8171    3.3539    3.5424 C.ar      1 <0>         0.0000
     15 C15        -1.8218   -0.0211    0.1584 C.ar      1 <0>         0.0000
     16 C16        -2.1564    1.6450    1.6299 C.ar      1 <0>         0.0000
     17 C17        -1.0266   -1.6010   -1.3151 C.2       1 <0>         0.0000
     18 C18         1.4560    1.6729    1.0595 C.2       1 <0>         0.0000
     19 C19         0.2024   -0.7758   -0.8612 C.3       1 <0>         0.0000
     20 C20         1.2122   -1.7276   -0.1898 C.3       1 <0>         0.0000
     21 C21         0.8164   -0.1046   -2.1074 C.3       1 <0>         0.0000
     22 C22         3.1316    6.9020    0.5710 C.3       1 <0>         0.0000
     23 C23        -3.4968    5.3073    4.5147 C.3       1 <0>         0.0000
     24 C24         2.9717    3.1467    2.3016 C.3       1 <0>         0.0000
     25 C25         3.3416    4.2845    1.3473 C.3       1 <0>         0.0000
     26 N1         -6.0218    3.6256    4.0577 N.ar      1 <0>         0.0000
     27 N2         -2.6194    3.5244    3.0918 N.2       1 <0>         0.0000
     28 N3         -0.8596    1.9455    1.6814 N.ar      1 <0>         0.0000
     29 N4         -2.7026    0.6491    0.8846 N.ar      1 <0>         0.0000
     30 N5         -3.6593    4.0617    3.7559 N.pl3     1 <0>         0.0000
     31 N6         -2.1498   -1.0781   -0.6720 N.am      1 <0>         0.0000
     32 N7          1.6561    2.5912    2.0362 N.am      1 <0>         0.0000
     33 O1         -1.0418   -2.5362   -2.0922 O.2       1 <0>         0.0000
     34 O2          2.3576    1.2189    0.3466 O.2       1 <0>         0.0000
     35 O3          2.6454    6.1706    3.1126 O.2       1 <0>         0.0000
     36 F1         -1.1279    6.2791    3.3340 F         1 <0>         0.0000
     37 S1          2.2695    5.7437    1.6949 S.o       1 <0>         0.0000
     38 H1         -0.7064    4.4305    8.1858 H         1 <0>         0.0000
     39 H2          1.3163    5.2406    6.9744 H         1 <0>         0.0000
     40 H3         -7.6129    1.0168    2.5932 H         1 <0>         0.0000
     41 H4         -5.3135    0.5586    1.6515 H         1 <0>         0.0000
     42 H5         -2.9214    4.4738    7.0596 H         1 <0>         0.0000
     43 H6          1.1051    6.1057    4.6237 H         1 <0>         0.0000
     44 H7         -7.9689    2.9570    4.0929 H         1 <0>         0.0000
     45 H8          1.4878   -2.5163   -0.8954 H         1 <0>         0.0000
     46 H9          0.7813   -2.1968    0.7007 H         1 <0>         0.0000
     47 H10         2.1022   -1.1675    0.1000 H         1 <0>         0.0000
     48 H11         1.0923   -0.8756   -2.8322 H         1 <0>         0.0000
     49 H12         1.7013    0.4606   -1.8131 H         1 <0>         0.0000
     50 H13         0.1013    0.5752   -2.5824 H         1 <0>         0.0000
     51 H14         2.6431    7.8722    0.6808 H         1 <0>         0.0000
     52 H15         3.0448    6.5543   -0.4621 H         1 <0>         0.0000
     53 H16         4.1782    6.9753    0.8772 H         1 <0>         0.0000
     54 H17        -4.3344    5.3513    5.2127 H         1 <0>         0.0000
     55 H18        -3.5817    6.1495    3.8222 H         1 <0>         0.0000
     56 H19         2.9997    3.5078    3.3326 H         1 <0>         0.0000
     57 H20         3.7108    2.3491    2.1920 H         1 <0>         0.0000
     58 H21         3.2081    3.9795    0.3055 H         1 <0>         0.0000
     59 H22         4.3753    4.6032    1.5175 H         1 <0>         0.0000
     60 H23        -3.0894   -1.4361   -0.8004 H         1 <0>         0.0000
     61 H24         0.8252    2.9311    2.5159 H         1 <0>         0.0000
@<TRIPOS>BOND
     1    1    2 ar
     2    1    5 ar
     3    1   38 1
     4    2    6 ar
     5    2   39 1
     6    3    4 ar
     7    3    7 ar
     8    3   40 1
     9    4    8 ar
    10    4   41 1
    11    5   10 ar
    12    5   42 1
    13    6   11 ar
    14    6   43 1
    15    7   26 ar
    16    7   44 1
    17    8   12 1
    18    8   14 ar
    19    9   13 ar
    20    9   15 ar
    21    9   19 1
    22   10   11 ar
    23   10   23 1
    24   11   36 1
    25   12   16 1
    26   12   27 2
    27   13   18 1
    28   13   28 ar
    29   14   26 ar
    30   14   30 1
    31   15   29 ar
    32   15   31 1
    33   16   28 ar
    34   16   29 ar
    35   17   19 1
    36   17   31 am
    37   17   33 2
    38   18   32 am
    39   18   34 2
    40   19   20 1
    41   19   21 1
    42   20   45 1
    43   20   46 1
    44   20   47 1
    45   21   48 1
    46   21   49 1
    47   21   50 1
    48   22   37 1
    49   22   51 1
    50   22   52 1
    51   22   53 1
    52   23   30 1
    53   23   54 1
    54   23   55 1
    55   24   25 1
    56   24   32 1
    57   24   56 1
    58   24   57 1
    59   25   37 1
    60   25   58 1
    61   25   59 1
    62   27   30 1
    63   31   60 1
    64   32   61 1
    65   35   37 2
