@<TRIPOS>MOLECULE
*****
   40    41     0     0     0
SMALL
NO_CHARGES

@<TRIPOS>ATOM
      1 C1          5.5795   -0.4933    5.5408 C.ar      1 <0>         0.0000
      2 C2          5.0982    0.0291    4.3357 C.ar      1 <0>         0.0000
      3 C3          3.5532   -1.7599    5.8031 C.ar      1 <0>         0.0000
      4 C4          4.8132   -1.3897    6.2893 C.ar      1 <0>         0.0000
      5 C5          3.8285   -0.3285    3.8643 C.ar      1 <0>         0.0000
      6 C6          3.0512   -1.2381    4.6123 C.ar      1 <0>         0.0000
      7 C7         -0.0810    0.6498    3.3099 C.3       1 <0>         0.0000
      8 C8         -0.6224   -0.7273    2.8298 C.3       1 <0>         0.0000
      9 C9          0.5436    0.3979    4.7078 C.3       1 <0>         0.0000
     10 C10        -0.5484   -1.6460    4.0668 C.3       1 <0>         0.0000
     11 C11         0.6685   -1.1266    4.8287 C.3       1 <0>         0.0000
     12 C12         3.5755   -0.5787    9.0006 C.3       1 <0>         0.0000
     13 C13         4.0280    1.0450    1.9216 C.3       1 <0>         0.0000
     14 C14         5.0548   -0.8972    8.7631 C.3       1 <0>         0.0000
     15 C15         5.3030   -1.9044    7.6242 C.3       1 <0>         0.0000
     16 O1          6.7066   -2.1853    7.5002 O.3       1 <0>         0.0000
     17 O2          1.8289   -1.6338    4.1218 O.3       1 <0>         0.0000
     18 O3          3.2625    0.1429    2.7109 O.3       1 <0>         0.0000
     19 H1          6.5693   -0.2173    5.8904 H         1 <0>         0.0000
     20 H2          5.7206    0.7158    3.7726 H         1 <0>         0.0000
     21 H3          2.9420   -2.4765    6.3469 H         1 <0>         0.0000
     22 H4          0.6717    1.0291    2.6158 H         1 <0>         0.0000
     23 H5         -0.8783    1.3973    3.3700 H         1 <0>         0.0000
     24 H6         -1.6365   -0.6630    2.4238 H         1 <0>         0.0000
     25 H7          0.0234   -1.1276    2.0441 H         1 <0>         0.0000
     26 H8          1.5041    0.9000    4.8479 H         1 <0>         0.0000
     27 H9         -0.1233    0.7497    5.5038 H         1 <0>         0.0000
     28 H10        -1.4357   -1.5219    4.6992 H         1 <0>         0.0000
     29 H11        -0.4514   -2.7067    3.8200 H         1 <0>         0.0000
     30 H12         0.7111   -1.4677    5.8707 H         1 <0>         0.0000
     31 H13         3.1278   -0.1013    8.1243 H         1 <0>         0.0000
     32 H14         3.0023   -1.4884    9.2151 H         1 <0>         0.0000
     33 H15         3.4562    0.0976    9.8531 H         1 <0>         0.0000
     34 H16         3.4056    1.2871    1.0588 H         1 <0>         0.0000
     35 H17         4.9617    0.5834    1.5766 H         1 <0>         0.0000
     36 H18         4.2592    1.9660    2.4719 H         1 <0>         0.0000
     37 H19         5.4872   -1.3108    9.6863 H         1 <0>         0.0000
     38 H20         5.6090    0.0202    8.5333 H         1 <0>         0.0000
     39 H21         4.7616   -2.8339    7.8594 H         1 <0>         0.0000
     40 H22         7.0461   -2.3867    8.3867 H         1 <0>         0.0000
@<TRIPOS>BOND
     1    1    2 ar
     2    1    4 ar
     3    1   19 1
     4    2    5 ar
     5    2   20 1
     6    3    4 ar
     7    3    6 ar
     8    3   21 1
     9    4   15 1
    10    5    6 ar
    11    5   18 1
    12    6   17 1
    13    7    8 1
    14    7    9 1
    15    7   22 1
    16    7   23 1
    17    8   10 1
    18    8   24 1
    19    8   25 1
    20    9   11 1
    21    9   26 1
    22    9   27 1
    23   10   11 1
    24   10   28 1
    25   10   29 1
    26   11   17 1
    27   11   30 1
    28   12   14 1
    29   12   31 1
    30   12   32 1
    31   12   33 1
    32   13   18 1
    33   13   34 1
    34   13   35 1
    35   13   36 1
    36   14   15 1
    37   14   37 1
    38   14   38 1
    39   15   16 1
    40   15   39 1
    41   16   40 1
