@<TRIPOS>MOLECULE
*****
   40    41     0     0     0
SMALL
NO_CHARGES

@<TRIPOS>ATOM
      1 C1          2.5251   -3.3216    1.0573 C.ar      1 <0>         0.0000
      2 C2          2.0822   -2.8965   -0.1972 C.ar      1 <0>         0.0000
      3 C3          2.6661   -2.3853    2.0857 C.ar      1 <0>         0.0000
      4 C4          1.7759   -1.5510   -0.4265 C.ar      1 <0>         0.0000
      5 C5          4.0017    3.1924    2.6312 C.2       1 <0>         0.0000
      6 C6          3.0341    2.3965    3.1951 C.2       1 <0>         0.0000
      7 C7          4.3537    1.2149    1.8677 C.2       1 <0>         0.0000
      8 C8          2.3722   -1.0318    1.8818 C.ar      1 <0>         0.0000
      9 C9          1.9160   -0.6157    0.6075 C.ar      1 <0>         0.0000
     10 C10         1.9869   -0.2517    4.2070 C.2       1 <0>         0.0000
     11 C11         2.5191   -0.0556    2.9904 C.2       1 <0>         0.0000
     12 C12         3.0440    3.3382   -0.9654 C.2       1 <0>         0.0000
     13 C13         1.8593    2.7810   -0.6349 C.2       1 <0>         0.0000
     14 C14         4.2296    2.5862   -1.5272 C.3       1 <0>         0.0000
     15 C15         3.3661    4.8004   -0.7575 C.3       1 <0>         0.0000
     16 C16         0.7090    3.5010    0.0322 C.3       1 <0>         0.0000
     17 C17         1.5814    1.3130   -0.8250 C.3       1 <0>         0.0000
     18 N1          4.8248    2.4441    1.8078 N.2       1 <0>         0.0000
     19 N2          3.2663    1.1195    2.7051 N.pl3     1 <0>         0.0000
     20 O1          1.6080    0.7004    0.4892 O.3       1 <0>         0.0000
     21 H1          2.7684   -4.3656    1.2316 H         1 <0>         0.0000
     22 H2          1.9678   -3.6127   -1.0069 H         1 <0>         0.0000
     23 H3          3.0350   -2.6943    3.0599 H         1 <0>         0.0000
     24 H4          1.4048   -1.2406   -1.3972 H         1 <0>         0.0000
     25 H5          4.1463    4.2574    2.7607 H         1 <0>         0.0000
     26 H6          2.1973    2.6111    3.8425 H         1 <0>         0.0000
     27 H7          4.7468    0.3541    1.3436 H         1 <0>         0.0000
     28 H8          2.1663    0.4356    5.0279 H         1 <0>         0.0000
     29 H9          1.3495   -1.1093    4.3906 H         1 <0>         0.0000
     30 H10         4.4960    2.9733   -2.5193 H         1 <0>         0.0000
     31 H11         4.0867    1.5088   -1.6123 H         1 <0>         0.0000
     32 H12         5.0906    2.7474   -0.8692 H         1 <0>         0.0000
     33 H13         4.0980    4.9003    0.0535 H         1 <0>         0.0000
     34 H14         2.5014    5.4185   -0.5163 H         1 <0>         0.0000
     35 H15         3.8349    5.2167   -1.6576 H         1 <0>         0.0000
     36 H16        -0.1896    3.4744   -0.5987 H         1 <0>         0.0000
     37 H17         0.4554    2.9943    0.9704 H         1 <0>         0.0000
     38 H18         0.9227    4.5425    0.2697 H         1 <0>         0.0000
     39 H19         0.5837    1.1535   -1.2562 H         1 <0>         0.0000
     40 H20         2.3129    0.8233   -1.4670 H         1 <0>         0.0000
@<TRIPOS>BOND
     1    1    2 ar
     2    1    3 ar
     3    1   21 1
     4    2    4 ar
     5    2   22 1
     6    3    8 ar
     7    3   23 1
     8    4    9 ar
     9    4   24 1
    10    5    6 2
    11    5   18 1
    12    5   25 1
    13    6   19 1
    14    6   26 1
    15    7   18 2
    16    7   19 1
    17    7   27 1
    18    8    9 ar
    19    8   11 1
    20    9   20 1
    21   10   11 2
    22   10   28 1
    23   10   29 1
    24   11   19 1
    25   12   13 2
    26   12   14 1
    27   12   15 1
    28   13   16 1
    29   13   17 1
    30   14   30 1
    31   14   31 1
    32   14   32 1
    33   15   33 1
    34   15   34 1
    35   15   35 1
    36   16   36 1
    37   16   37 1
    38   16   38 1
    39   17   20 1
    40   17   39 1
    41   17   40 1
