@<TRIPOS>MOLECULE
*****
   36    38     0     0     0
SMALL
NO_CHARGES

@<TRIPOS>ATOM
      1 C1         -3.4951   -1.4665   -1.1141 C.ar      1 <0>         0.0000
      2 C2         -2.8346   -2.0717    1.0870 C.ar      1 <0>         0.0000
      3 C3         -3.7310   -2.2415    0.0239 C.ar      1 <0>         0.0000
      4 C4         -2.4191   -0.5765   -1.1650 C.ar      1 <0>         0.0000
      5 C5         -1.5903   -0.4779   -0.0295 C.ar      1 <0>         0.0000
      6 C6         -1.1663   -2.5460   -4.7834 C.3       1 <0>         0.0000
      7 C7         -0.8879   -2.6766   -3.2992 C.3       1 <0>         0.0000
      8 C8         -0.5947    1.9271   -0.0586 C.3       1 <0>         0.0000
      9 C9         -0.1860    1.2669    1.2427 C.3       1 <0>         0.0000
     10 C10        -1.0744   -1.3113   -3.9200 C.3       1 <0>         0.0000
     11 C11        -0.3832    0.4254    0.0079 C.3       1 <0>         0.0000
     12 C12        -4.8870   -3.2086    0.1079 C.3       1 <0>         0.0000
     13 C13         0.8549   -0.1726   -0.6456 C.3       1 <0>         0.0000
     14 C14        -2.2108    0.2432   -2.4280 C.3       1 <0>         0.0000
     15 N1         -1.8022   -1.2233    1.0694 N.ar      1 <0>         0.0000
     16 N2         -2.2934   -0.5901   -3.6395 N.3       1 <0>         0.0000
     17 H1         -4.1319   -1.5648   -1.9909 H         1 <0>         0.0000
     18 H2         -2.9577   -2.6543    2.0010 H         1 <0>         0.0000
     19 H3         -0.3600   -2.7432   -5.4838 H         1 <0>         0.0000
     20 H4         -2.1573   -2.8251   -5.1282 H         1 <0>         0.0000
     21 H5         -1.6900   -3.0415   -2.6685 H         1 <0>         0.0000
     22 H6          0.1118   -2.9572   -2.9811 H         1 <0>         0.0000
     23 H7         -1.6138    2.2964   -0.1366 H         1 <0>         0.0000
     24 H8          0.1412    2.5217   -0.5948 H         1 <0>         0.0000
     25 H9          0.8315    1.4136    1.5949 H         1 <0>         0.0000
     26 H10        -0.9282    1.1782    2.0291 H         1 <0>         0.0000
     27 H11        -0.1641   -0.7123   -4.0290 H         1 <0>         0.0000
     28 H12        -4.8888   -3.9006   -0.7412 H         1 <0>         0.0000
     29 H13        -4.8415   -3.8021    1.0256 H         1 <0>         0.0000
     30 H14        -5.8473   -2.6804    0.0993 H         1 <0>         0.0000
     31 H15         1.6982    0.5249   -0.5967 H         1 <0>         0.0000
     32 H16         0.6771   -0.4193   -1.6974 H         1 <0>         0.0000
     33 H17         1.1442   -1.0944   -0.1292 H         1 <0>         0.0000
     34 H18        -3.0106    0.9919   -2.4919 H         1 <0>         0.0000
     35 H19        -1.2674    0.7984   -2.3681 H         1 <0>         0.0000
     36 H20        -2.5205    0.0003   -4.4367 H         1 <0>         0.0000
@<TRIPOS>BOND
     1    1    3 ar
     2    1    4 ar
     3    1   17 1
     4    2    3 ar
     5    2   15 ar
     6    2   18 1
     7    3   12 1
     8    4    5 ar
     9    4   14 1
    10    5   11 1
    11    5   15 ar
    12    6    7 1
    13    6   10 1
    14    6   19 1
    15    6   20 1
    16    7   10 1
    17    7   21 1
    18    7   22 1
    19    8    9 1
    20    8   11 1
    21    8   23 1
    22    8   24 1
    23    9   11 1
    24    9   25 1
    25    9   26 1
    26   10   16 1
    27   10   27 1
    28   11   13 1
    29   12   28 1
    30   12   29 1
    31   12   30 1
    32   13   31 1
    33   13   32 1
    34   13   33 1
    35   14   16 1
    36   14   34 1
    37   14   35 1
    38   16   36 1
