@<TRIPOS>MOLECULE
*****
   32    34     0     0     0
SMALL
NO_CHARGES

@<TRIPOS>ATOM
      1 C1         -0.5812    3.2417   -0.8037 C.ar      1 <0>         0.0000
      2 C2          0.1298    2.0977   -0.4527 C.ar      1 <0>         0.0000
      3 C3         -4.0839    9.2937   -2.6365 C.2       1 <0>         0.0000
      4 C4         -4.2869   10.6635   -2.9721 C.2       1 <0>         0.0000
      5 C5         -4.0902    4.2376   -1.4936 C.ar      1 <0>         0.0000
      6 C6         -1.9323    0.8440   -0.4461 C.ar      1 <0>         0.0000
      7 C7         -4.6804    3.0058   -1.2959 C.ar      1 <0>         0.0000
      8 C8         -1.9747    3.1875   -0.9770 C.ar      1 <0>         0.0000
      9 C9         -2.6683    1.9725   -0.7968 C.ar      1 <0>         0.0000
     10 C10        -2.7151    4.3237   -1.3301 C.ar      1 <0>         0.0000
     11 C11        -0.5469    0.8976   -0.2738 C.ar      1 <0>         0.0000
     12 C12        -2.7577    9.0114   -2.3939 C.2       1 <0>         0.0000
     13 C13        -3.1079   11.3761   -2.9728 C.2       1 <0>         0.0000
     14 C14        -2.1384    7.7276   -2.0208 C.2       1 <0>         0.0000
     15 C15        -2.9003   12.8108   -3.2651 C.3       1 <0>         0.0000
     16 N1         -4.0027    1.8858   -0.9548 N.ar      1 <0>         0.0000
     17 N2         -2.8366    6.6492   -1.8716 N.2       1 <0>         0.0000
     18 N3         -2.0991    5.5816   -1.5310 N.pl3     1 <0>         0.0000
     19 S1         -1.7637   10.3946   -2.5705 S.3       1 <0>         0.0000
     20 Cl1         0.3212   -0.5235    0.1615 Cl        1 <0>         0.0000
     21 H1         -0.0264    4.1673   -0.9364 H         1 <0>         0.0000
     22 H2          1.2070    2.1582   -0.3225 H         1 <0>         0.0000
     23 H3         -4.8743    8.5561   -2.5777 H         1 <0>         0.0000
     24 H4         -5.2509   11.1001   -3.2005 H         1 <0>         0.0000
     25 H5         -4.6896    5.0992   -1.7672 H         1 <0>         0.0000
     26 H6         -2.4534   -0.1020   -0.3037 H         1 <0>         0.0000
     27 H7         -5.7518    2.8785   -1.4111 H         1 <0>         0.0000
     28 H8         -1.0418    7.7328   -1.8739 H         1 <0>         0.0000
     29 H9         -2.9786   13.4156   -2.3481 H         1 <0>         0.0000
     30 H10        -1.9102   13.0004   -3.7110 H         1 <0>         0.0000
     31 H11        -3.6404   13.1945   -3.9867 H         1 <0>         0.0000
     32 H12        -1.0992    5.6384   -1.4108 H         1 <0>         0.0000
@<TRIPOS>BOND
     1    1    2 ar
     2    1    8 ar
     3    1   21 1
     4    2   11 ar
     5    2   22 1
     6    3    4 1
     7    3   12 2
     8    3   23 1
     9    4   13 2
    10    4   24 1
    11    5    7 ar
    12    5   10 ar
    13    5   25 1
    14    6    9 ar
    15    6   11 ar
    16    6   26 1
    17    7   16 ar
    18    7   27 1
    19    8    9 ar
    20    8   10 ar
    21    9   16 ar
    22   10   18 1
    23   11   20 1
    24   12   14 1
    25   12   19 1
    26   13   15 1
    27   13   19 1
    28   14   17 2
    29   14   28 1
    30   15   29 1
    31   15   30 1
    32   15   31 1
    33   17   18 1
    34   18   32 1
