@<TRIPOS>MOLECULE
*****
   30    32     0     0     0
SMALL
NO_CHARGES

@<TRIPOS>ATOM
      1 C1          1.9930   -1.0943   -0.1144 C.ar      1 <0>         0.0000
      2 C2          1.3660   -2.1519    0.5530 C.ar      1 <0>         0.0000
      3 C3          2.5340   -0.0347    0.6216 C.ar      1 <0>         0.0000
      4 C4          0.5445   -0.5012    6.2288 C.ar      1 <0>         0.0000
      5 C5          1.5609   -1.0865    6.9900 C.ar      1 <0>         0.0000
      6 C6          1.2783   -2.1481    1.9484 C.ar      1 <0>         0.0000
      7 C7          2.4458   -0.0319    2.0170 C.ar      1 <0>         0.0000
      8 C8          0.6302   -0.5032    4.8337 C.ar      1 <0>         0.0000
      9 C9          2.6575   -1.6705    6.3506 C.ar      1 <0>         0.0000
     10 C10         6.0022   -3.4065    2.9895 C.ar      1 <0>         0.0000
     11 C11         6.0055   -2.0671    3.3798 C.ar      1 <0>         0.0000
     12 C12         4.8623   -4.1419    3.3150 C.ar      1 <0>         0.0000
     13 C13         1.8123   -1.0855    2.6917 C.ar      1 <0>         0.0000
     14 C14         1.7258   -1.0862    4.1827 C.ar      1 <0>         0.0000
     15 C15         2.7437   -1.6726    4.9546 C.ar      1 <0>         0.0000
     16 C16         3.9191   -2.2986    4.2724 C.ar      1 <0>         0.0000
     17 N1          4.9732   -1.5043    4.0208 N.ar      1 <0>         0.0000
     18 N2          3.8183   -3.6004    3.9553 N.ar      1 <0>         0.0000
     19 H1          2.0620   -1.0972   -1.1994 H         1 <0>         0.0000
     20 H2          0.9481   -2.9814   -0.0121 H         1 <0>         0.0000
     21 H3          3.0276    0.7879    0.1100 H         1 <0>         0.0000
     22 H4         -0.3117   -0.0450    6.7191 H         1 <0>         0.0000
     23 H5          1.5005   -1.0884    8.0752 H         1 <0>         0.0000
     24 H6          0.8053   -2.9756    2.4701 H         1 <0>         0.0000
     25 H7          2.8786    0.7822    2.5919 H         1 <0>         0.0000
     26 H8         -0.1567   -0.0499    4.2362 H         1 <0>         0.0000
     27 H9          3.4515   -2.1274    6.9357 H         1 <0>         0.0000
     28 H10         6.8408   -3.8522    2.4635 H         1 <0>         0.0000
     29 H11         6.8580   -1.4211    3.1734 H         1 <0>         0.0000
     30 H12         4.7777   -5.1966    3.0556 H         1 <0>         0.0000
@<TRIPOS>BOND
     1    1    3 ar
     2    1    2 ar
     3    1   19 1
     4    2    6 ar
     5    2   20 1
     6    3    7 ar
     7    3   21 1
     8    4    5 ar
     9    4    8 ar
    10    4   22 1
    11    5    9 ar
    12    5   23 1
    13    6   13 ar
    14    6   24 1
    15    7   13 ar
    16    7   25 1
    17    8   14 ar
    18    8   26 1
    19    9   15 ar
    20    9   27 1
    21   10   12 ar
    22   10   11 ar
    23   10   28 1
    24   11   17 ar
    25   11   29 1
    26   12   18 ar
    27   12   30 1
    28   13   14 1
    29   14   15 ar
    30   15   16 1
    31   16   18 ar
    32   16   17 ar
