@<TRIPOS>MOLECULE
*****
   34    36     0     0     0
SMALL
NO_CHARGES

@<TRIPOS>ATOM
      1 C1          3.4249   -4.5399    0.6041 C.2       1 <0>         0.0000
      2 C2          4.0787   -5.7309    0.3695 C.2       1 <0>         0.0000
      3 C3          0.9148   -4.7535   -2.5570 C.ar      1 <0>         0.0000
      4 C4          2.4518   -4.3794   -0.4152 C.ar      1 <0>         0.0000
      5 C5          2.5465   -5.4904   -1.2443 C.ar      1 <0>         0.0000
      6 C6          1.4893   -3.4288   -0.7520 C.ar      1 <0>         0.0000
      7 C7         -0.0971    0.7996   -1.6293 C.3       1 <0>         0.0000
      8 C8          0.8601   -0.3670   -1.4036 C.3       1 <0>         0.0000
      9 C9         -0.3790    1.5481   -0.3260 C.3       1 <0>         0.0000
     10 C10         0.0561   -0.4455    0.9877 C.3       1 <0>         0.0000
     11 C11         0.3432   -1.2637   -0.2782 C.3       1 <0>         0.0000
     12 C12        -1.2081    1.3789    1.9291 C.3       1 <0>         0.0000
     13 N1          1.8053   -5.7421   -2.3374 N.ar      1 <0>         0.0000
     14 N2          0.7112   -3.6244   -1.8416 N.ar      1 <0>         0.0000
     15 N3          3.5369   -6.2999   -0.7545 N.pl3     1 <0>         0.0000
     16 N4         -0.8977    0.6392    0.7056 N.3       1 <0>         0.0000
     17 N5          1.3224   -2.2896    0.0148 N.pl3     1 <0>         0.0000
     18 H1          3.6329   -3.8650    1.4231 H         1 <0>         0.0000
     19 H2          4.8799   -6.2233    0.9024 H         1 <0>         0.0000
     20 H3          0.2754   -4.8805   -3.4240 H         1 <0>         0.0000
     21 H4          0.3290    1.4889   -2.3671 H         1 <0>         0.0000
     22 H5         -1.0389    0.4240   -2.0494 H         1 <0>         0.0000
     23 H6          0.9672   -0.9396   -2.3324 H         1 <0>         0.0000
     24 H7          1.8520    0.0285   -1.1487 H         1 <0>         0.0000
     25 H8          0.5371    2.0469    0.0172 H         1 <0>         0.0000
     26 H9         -1.1173    2.3316   -0.5355 H         1 <0>         0.0000
     27 H10        -0.3702   -1.1134    1.7473 H         1 <0>         0.0000
     28 H11         0.9908   -0.0368    1.3961 H         1 <0>         0.0000
     29 H12        -0.5802   -1.7568   -0.6065 H         1 <0>         0.0000
     30 H13        -1.5933    0.6978    2.6923 H         1 <0>         0.0000
     31 H14        -1.9626    2.1440    1.7270 H         1 <0>         0.0000
     32 H15        -0.3086    1.8667    2.3143 H         1 <0>         0.0000
     33 H16         3.8243   -7.1797   -1.1599 H         1 <0>         0.0000
     34 H17         1.9150   -2.1604    0.8247 H         1 <0>         0.0000
@<TRIPOS>BOND
     1    1    2 2
     2    1    4 1
     3    1   18 1
     4    2   15 1
     5    2   19 1
     6    3   13 ar
     7    3   14 ar
     8    3   20 1
     9    4    5 ar
    10    4    6 ar
    11    5   13 ar
    12    5   15 1
    13    6   14 ar
    14    6   17 1
    15    7    8 1
    16    7    9 1
    17    7   21 1
    18    7   22 1
    19    8   11 1
    20    8   23 1
    21    8   24 1
    22    9   16 1
    23    9   25 1
    24    9   26 1
    25   10   11 1
    26   10   16 1
    27   10   27 1
    28   10   28 1
    29   11   17 1
    30   11   29 1
    31   12   16 1
    32   12   30 1
    33   12   31 1
    34   12   32 1
    35   15   33 1
    36   17   34 1
