@<TRIPOS>MOLECULE
*****
   21    20     0     0     0
SMALL
NO_CHARGES

@<TRIPOS>ATOM
      1 C1          0.3050   -0.2875   -0.1031 C.3       1 <0>         0.0000
      2 C2         -5.0713   -0.0497    1.5561 C.3       1 <0>         0.0000
      3 C3         -0.7716    0.7070    0.2758 C.3       1 <0>         0.0000
      4 C4         -3.7279    0.1845    2.2135 C.3       1 <0>         0.0000
      5 N1         -1.5166    3.4567    1.6850 N.pl3     1 <0>         0.0000
      6 O1         -1.7078    1.9149    3.8772 O.2       1 <0>         0.0000
      7 O2         -0.7391    0.9108    1.6781 O.3       1 <0>         0.0000
      8 O3         -3.2269    1.4457    1.8037 O.3       1 <0>         0.0000
      9 P1         -1.7884    1.9343    2.3750 P.3       1 <0>         0.0000
     10 H1          1.2953    0.0856    0.1724 H         1 <0>         0.0000
     11 H2          0.1371   -1.2472    0.3967 H         1 <0>         0.0000
     12 H3          0.2881   -0.4826   -1.1805 H         1 <0>         0.0000
     13 H4         -5.7886    0.7223    1.8481 H         1 <0>         0.0000
     14 H5         -4.9731   -0.0468    0.4656 H         1 <0>         0.0000
     15 H6         -5.4726   -1.0292    1.8368 H         1 <0>         0.0000
     16 H7         -1.7595    0.3278   -0.0024 H         1 <0>         0.0000
     17 H8         -0.6020    1.6655   -0.2237 H         1 <0>         0.0000
     18 H9         -3.0153   -0.5910    1.9173 H         1 <0>         0.0000
     19 H10        -3.8280    0.1821    3.3030 H         1 <0>         0.0000
     20 H11        -2.2874    4.0910    1.5330 H         1 <0>         0.0000
     21 H12        -0.5803    3.7420    1.4371 H         1 <0>         0.0000
@<TRIPOS>BOND
     1    1    3 1
     2    1   10 1
     3    1   11 1
     4    1   12 1
     5    2    4 1
     6    2   13 1
     7    2   14 1
     8    2   15 1
     9    3    7 1
    10    3   16 1
    11    3   17 1
    12    4    8 1
    13    4   18 1
    14    4   19 1
    15    5    9 1
    16    5   20 1
    17    5   21 1
    18    6    9 2
    19    7    9 1
    20    8    9 1
