@<TRIPOS>MOLECULE
*****
   18    18     0     0     0
SMALL
NO_CHARGES

@<TRIPOS>ATOM
      1 C1          0.5729   -0.5278   -2.1047 C.2       1 <0>         0.0000
      2 C2          0.0972   -0.7332   -0.7876 C.2       1 <0>         0.0000
      3 C3          0.5096   -1.7519   -2.7289 C.2       1 <0>         0.0000
      4 C4         -0.2230   -2.0681   -0.7009 C.2       1 <0>         0.0000
      5 C5          0.8537   -2.1568   -4.0490 C.2       1 <0>         0.0000
      6 C6         -0.7597   -2.9048    0.3817 C.3       1 <0>         0.0000
      7 N1          1.3296   -1.2250   -4.8789 N.2       1 <0>         0.0000
      8 N2          0.7173   -3.4833   -4.5238 N.pl3     1 <0>         0.0000
      9 O1          0.0254   -2.6961   -1.8801 O.3       1 <0>         0.0000
     10 O2          1.6367   -1.7235   -6.1490 O.3       1 <0>         0.0000
     11 H1          0.9184    0.3984   -2.5415 H         1 <0>         0.0000
     12 H2          0.0017    0.0021   -0.0013 H         1 <0>         0.0000
     13 H3         -1.8640   -2.9253    0.3662 H         1 <0>         0.0000
     14 H4         -0.4095   -3.9516    0.3166 H         1 <0>         0.0000
     15 H5         -0.4504   -2.5475    1.3815 H         1 <0>         0.0000
     16 H6          0.9568   -3.7209   -5.4796 H         1 <0>         0.0000
     17 H7          0.3415   -4.2307   -3.9499 H         1 <0>         0.0000
     18 H8          1.9591   -0.9243   -6.5990 H         1 <0>         0.0000
@<TRIPOS>BOND
     1    1    2 1
     2    1    3 2
     3    1   11 1
     4    2    4 2
     5    2   12 1
     6    3    5 1
     7    3    9 1
     8    4    6 1
     9    4    9 1
    10    5    7 2
    11    5    8 1
    12    6   13 1
    13    6   14 1
    14    6   15 1
    15    7   10 1
    16    8   16 1
    17    8   17 1
    18   10   18 1
