@<TRIPOS>MOLECULE
*****
   45    49     0     0     0
SMALL
NO_CHARGES

@<TRIPOS>ATOM
      1 C1         -1.9333    5.7331    0.6967 C.ar      1 <0>         0.0000
      2 C2          0.4027    4.9847    0.7138 C.ar      1 <0>         0.0000
      3 C3         -2.1943    4.6119   -0.1110 C.ar      1 <0>         0.0000
      4 C4         -0.6167    5.8867    1.0904 C.ar      1 <0>         0.0000
      5 C5         -3.3132    4.0050   -0.7757 C.2       1 <0>         0.0000
      6 C6         -7.1959    5.2424   -0.8477 C.ar      1 <0>         0.0000
      7 C7         -1.0997    3.7659   -0.4272 C.ar      1 <0>         0.0000
      8 C8         -6.2169    5.9603   -0.1196 C.ar      1 <0>         0.0000
      9 C9         -4.7053    4.4648   -0.7902 C.ar      1 <0>         0.0000
     10 C10        -8.1849    7.1138    0.2094 C.2       1 <0>         0.0000
     11 C11         0.2678    1.0682   -4.1660 C.3       1 <0>         0.0000
     12 C12        -1.4023    2.4878   -4.3365 C.3       1 <0>         0.0000
     13 C13        -0.3377    2.1688   -3.2400 C.3       1 <0>         0.0000
     14 C14        -8.5405    5.9140   -0.7029 C.3       1 <0>         0.0000
     15 C15        -0.5536    1.6683   -5.3142 C.3       1 <0>         0.0000
     16 C16        -9.0846    6.4292   -2.0487 C.3       1 <0>         0.0000
     17 C17        -9.5703    5.0134    0.0053 C.3       1 <0>         0.0000
     18 C18        -0.8517    1.7046   -1.8829 C.3       1 <0>         0.0000
     19 N1          0.1750    3.9156   -0.0484 N.ar      1 <0>         0.0000
     20 N2         -2.9242    2.9027   -1.4249 N.2       1 <0>         0.0000
     21 N3         -6.8832    4.1605   -1.5224 N.ar      1 <0>         0.0000
     22 N4         -4.9554    5.6008   -0.0666 N.ar      1 <0>         0.0000
     23 N5         -5.5934    3.7537   -1.4960 N.ar      1 <0>         0.0000
     24 N6         -1.6028    2.7512   -1.2046 N.pl3     1 <0>         0.0000
     25 N7         -6.8091    7.0492    0.4898 N.am      1 <0>         0.0000
     26 O1         -8.9338    7.9729    0.6266 O.2       1 <0>         0.0000
     27 F1         -0.2667    6.9413    1.8697 F         1 <0>         0.0000
     28 F2         -1.2172    0.7839   -6.1241 F         1 <0>         0.0000
     29 F3          0.2105    2.4614   -6.1434 F         1 <0>         0.0000
     30 H1         -2.7064    6.4324    0.9911 H         1 <0>         0.0000
     31 H2          1.4210    5.1603    1.0539 H         1 <0>         0.0000
     32 H3          1.3497    1.0587   -4.3085 H         1 <0>         0.0000
     33 H4         -0.0865    0.0645   -3.9157 H         1 <0>         0.0000
     34 H5         -2.3653    2.0121   -4.1379 H         1 <0>         0.0000
     35 H6         -1.5565    3.5339   -4.6049 H         1 <0>         0.0000
     36 H7          0.3584    3.0002   -3.1048 H         1 <0>         0.0000
     37 H8         -9.9988    7.0047   -1.8818 H         1 <0>         0.0000
     38 H9         -9.3045    5.5797   -2.7005 H         1 <0>         0.0000
     39 H10        -8.3573    7.0711   -2.5552 H         1 <0>         0.0000
     40 H11       -10.4888    5.5767    0.1896 H         1 <0>         0.0000
     41 H12        -9.1894    4.6466    0.9633 H         1 <0>         0.0000
     42 H13        -9.7944    4.1508   -0.6275 H         1 <0>         0.0000
     43 H14        -0.0194    1.4223   -1.2328 H         1 <0>         0.0000
     44 H15        -1.5240    0.8500   -1.9903 H         1 <0>         0.0000
     45 H16        -6.3287    7.7266    1.0728 H         1 <0>         0.0000
@<TRIPOS>BOND
     1    1    3 ar
     2    1    4 ar
     3    1   30 1
     4    2    4 ar
     5    2   19 ar
     6    2   31 1
     7    3    5 1
     8    3    7 ar
     9    4   27 1
    10    5    9 1
    11    5   20 2
    12    6    8 ar
    13    6   14 1
    14    6   21 ar
    15    7   19 ar
    16    7   24 1
    17    8   22 ar
    18    8   25 1
    19    9   22 ar
    20    9   23 ar
    21   10   14 1
    22   10   25 am
    23   10   26 2
    24   11   13 1
    25   11   15 1
    26   11   32 1
    27   11   33 1
    28   12   13 1
    29   12   15 1
    30   12   34 1
    31   12   35 1
    32   13   18 1
    33   13   36 1
    34   14   16 1
    35   14   17 1
    36   15   28 1
    37   15   29 1
    38   16   37 1
    39   16   38 1
    40   16   39 1
    41   17   40 1
    42   17   41 1
    43   17   42 1
    44   18   24 1
    45   18   43 1
    46   18   44 1
    47   20   24 1
    48   21   23 ar
    49   25   45 1
