@<TRIPOS>MOLECULE
*****
   56    59     0     0     0
SMALL
NO_CHARGES

@<TRIPOS>ATOM
      1 C1         -0.6849    3.6418   -1.1182 C.ar      1 <0>         0.0000
      2 C2          0.1716    2.9190   -0.2536 C.ar      1 <0>         0.0000
      3 C3         -1.6203    3.0177   -1.9481 C.ar      1 <0>         0.0000
      4 C4         -0.8438    0.9045   -1.0113 C.ar      1 <0>         0.0000
      5 C5          0.1019    1.5284   -0.1924 C.ar      1 <0>         0.0000
      6 C6         -1.1238   -0.4893   -1.1431 C.2       1 <0>         0.0000
      7 C7         -1.6888    1.6211   -1.8843 C.ar      1 <0>         0.0000
      8 C8         -2.1187   -0.6109   -2.0867 C.2       1 <0>         0.0000
      9 C9         -0.3807   -1.4392   -0.2510 C.3       1 <0>         0.0000
     10 C10         2.3990    1.1583    0.8197 C.3       1 <0>         0.0000
     11 C11         3.2721   -1.1915    1.0201 C.3       1 <0>         0.0000
     12 C12         0.9670    0.6172    0.6748 C.3       1 <0>         0.0000
     13 C13         3.3314    0.2216    1.6042 C.3       1 <0>         0.0000
     14 C14         0.9906   -0.7978    0.0442 C.3       1 <0>         0.0000
     15 C15         1.2535   -3.8634    4.0832 C.3       1 <0>         0.0000
     16 C16        -2.8676   -4.1683   -2.5661 C.3       1 <0>         0.0000
     17 C17         3.3248    1.7792    5.4816 C.3       1 <0>         0.0000
     18 C18        -2.8351   -1.8116   -2.6225 C.3       1 <0>         0.0000
     19 C19         3.1323    0.3007    3.1300 C.3       1 <0>         0.0000
     20 C20         2.0623   -3.2686    2.9222 C.3       1 <0>         0.0000
     21 C21         1.2274   -2.2304    2.1759 C.3       1 <0>         0.0000
     22 N1         -2.4613    0.6678   -2.5341 N.pl3     1 <0>         0.0000
     23 N2          1.8637   -1.7489    0.8839 N.4       1 <0>         0.0000
     24 O1         -2.2148   -2.9818   -2.1192 O.3       1 <0>         0.0000
     25 S1          3.8759    1.8593    3.7449 S.3       1 <0>         0.0000
     26 H1         -0.6069    4.7249   -1.1403 H         1 <0>         0.0000
     27 H2          0.8797    3.4742    0.3542 H         1 <0>         0.0000
     28 H3         -2.2565    3.6024   -2.6068 H         1 <0>         0.0000
     29 H4         -0.9458   -1.5782    0.6773 H         1 <0>         0.0000
     30 H5         -0.2598   -2.4224   -0.7159 H         1 <0>         0.0000
     31 H6          2.8072    1.3255   -0.1837 H         1 <0>         0.0000
     32 H7          2.3802    2.1300    1.3157 H         1 <0>         0.0000
     33 H8          3.6658   -1.1747    0.0002 H         1 <0>         0.0000
     34 H9          3.8583   -1.9077    1.5947 H         1 <0>         0.0000
     35 H10         0.5002    0.5456    1.6668 H         1 <0>         0.0000
     36 H11         4.3645    0.5367    1.4109 H         1 <0>         0.0000
     37 H12         1.5333   -0.7270   -0.9048 H         1 <0>         0.0000
     38 H13         0.9516   -3.0876    4.7942 H         1 <0>         0.0000
     39 H14         0.3496   -4.3665    3.7257 H         1 <0>         0.0000
     40 H15         1.8533   -4.5975    4.6263 H         1 <0>         0.0000
     41 H16        -2.3281   -5.0122   -2.1326 H         1 <0>         0.0000
     42 H17        -2.8409   -4.2471   -3.6616 H         1 <0>         0.0000
     43 H18        -3.9132   -4.1963   -2.2303 H         1 <0>         0.0000
     44 H19         3.7159    2.6700    5.9775 H         1 <0>         0.0000
     45 H20         3.7259    0.8946    5.9832 H         1 <0>         0.0000
     46 H21         2.2337    1.7895    5.5508 H         1 <0>         0.0000
     47 H22        -3.8971   -1.7837   -2.3247 H         1 <0>         0.0000
     48 H23        -2.8093   -1.8080   -3.7255 H         1 <0>         0.0000
     49 H24         3.6168   -0.5453    3.6295 H         1 <0>         0.0000
     50 H25         2.0728    0.2993    3.4033 H         1 <0>         0.0000
     51 H26         2.3610   -4.0703    2.2338 H         1 <0>         0.0000
     52 H27         2.9794   -2.8236    3.3162 H         1 <0>         0.0000
     53 H28         0.2734   -2.6712    1.8901 H         1 <0>         0.0000
     54 H29         1.0235   -1.3574    2.7912 H         1 <0>         0.0000
     55 H30        -3.1539    0.8628   -3.2446 H         1 <0>         0.0000
     56 H31         1.9584   -2.5930    0.3104 H         1 <0>         0.0000
@<TRIPOS>BOND
     1    1    2 ar
     2    1    3 ar
     3    1   26 1
     4    2    5 ar
     5    2   27 1
     6    3    7 ar
     7    3   28 1
     8    4    5 ar
     9    4    6 1
    10    4    7 ar
    11    5   12 1
    12    6    8 2
    13    6    9 1
    14    7   22 1
    15    8   18 1
    16    8   22 1
    17    9   14 1
    18    9   29 1
    19    9   30 1
    20   10   12 1
    21   10   13 1
    22   10   31 1
    23   10   32 1
    24   11   13 1
    25   11   23 1
    26   11   33 1
    27   11   34 1
    28   12   14 1
    29   12   35 1
    30   13   19 1
    31   13   36 1
    32   14   23 1
    33   14   37 1
    34   15   20 1
    35   15   38 1
    36   15   39 1
    37   15   40 1
    38   16   24 1
    39   16   41 1
    40   16   42 1
    41   16   43 1
    42   17   25 1
    43   17   44 1
    44   17   45 1
    45   17   46 1
    46   18   24 1
    47   18   47 1
    48   18   48 1
    49   19   25 1
    50   19   49 1
    51   19   50 1
    52   20   21 1
    53   20   51 1
    54   20   52 1
    55   21   23 1
    56   21   53 1
    57   21   54 1
    58   22   55 1
    59   23   56 1
