@<TRIPOS>MOLECULE
*****
   57    58     0     0     0
SMALL
NO_CHARGES

@<TRIPOS>ATOM
      1 C1         -2.5178   -1.2089   -1.1592 C.2       1 <0>         0.0000
      2 C2         -1.4971   -0.2517   -0.8510 C.2       1 <0>         0.0000
      3 C3         -0.4735   -0.8188   -0.1202 C.2       1 <0>         0.0000
      4 C4         -3.7581   -0.9709   -1.8916 C.2       1 <0>         0.0000
      5 C5         -2.2563   -2.4732   -0.6581 C.2       1 <0>         0.0000
      6 C6         -4.2629   -3.3927   -1.6050 C.2       1 <0>         0.0000
      7 C7         -1.5590    1.1888   -1.2765 C.3       1 <0>         0.0000
      8 C8         -8.3585   -1.3996   -2.2726 C.3       1 <0>         0.0000
      9 C9         -6.6972   -0.3495   -0.7103 C.3       1 <0>         0.0000
     10 C10        -7.7637   -3.8524   -0.9108 C.3       1 <0>         0.0000
     11 C11         0.7211   -0.1526    0.4402 C.3       1 <0>         0.0000
     12 C12        -1.9214   -5.6615   -1.4535 C.3       1 <0>         0.0000
     13 C13        -2.7230   -4.8955   -0.3960 C.3       1 <0>         0.0000
     14 C14        -5.9357   -1.9042   -2.5900 C.3       1 <0>         0.0000
     15 C15         1.1227    1.8322    3.8155 C.3       1 <0>         0.0000
     16 C16         1.5527    1.1888    2.4925 C.3       1 <0>         0.0000
     17 C17        -1.4601   -7.0142   -0.9348 C.3       1 <0>         0.0000
     18 C18        -7.0289   -1.5984   -1.5316 C.3       1 <0>         0.0000
     19 N1         -4.6011   -2.0926   -1.9885 N.am      1 <0>         0.0000
     20 N2         -3.0814   -3.5373   -0.8409 N.am      1 <0>         0.0000
     21 N3          2.3028    2.4522    4.4061 N.3       1 <0>         0.0000
     22 N4          0.3993    0.4933    1.8098 N.4       1 <0>         0.0000
     23 O1         -4.0657    0.1144   -2.3750 O.2       1 <0>         0.0000
     24 O2         -4.9182   -4.3754   -1.9015 O.2       1 <0>         0.0000
     25 O3         -7.0764   -2.6523   -0.5561 O.3       1 <0>         0.0000
     26 F1         -2.5675   -7.7631   -0.5119 F         1 <0>         0.0000
     27 S1         -0.7418   -2.5406    0.2002 S.3       1 <0>         0.0000
     28 H1         -2.4507    1.6739   -0.8699 H         1 <0>         0.0000
     29 H2         -0.6724    1.7516   -0.9677 H         1 <0>         0.0000
     30 H3         -1.6512    1.2607   -2.3628 H         1 <0>         0.0000
     31 H4         -8.6039   -2.2427   -2.9246 H         1 <0>         0.0000
     32 H5         -9.1726   -1.2699   -1.5540 H         1 <0>         0.0000
     33 H6         -8.3096   -0.5000   -2.8934 H         1 <0>         0.0000
     34 H7         -5.8091   -0.5212   -0.0953 H         1 <0>         0.0000
     35 H8         -7.5297   -0.1342   -0.0353 H         1 <0>         0.0000
     36 H9         -6.5166    0.5154   -1.3517 H         1 <0>         0.0000
     37 H10        -7.5574   -4.5632   -0.1083 H         1 <0>         0.0000
     38 H11        -7.3973   -4.2817   -1.8489 H         1 <0>         0.0000
     39 H12        -8.8463   -3.6917   -0.9720 H         1 <0>         0.0000
     40 H13         1.5528   -0.8343    0.6291 H         1 <0>         0.0000
     41 H14         1.0805    0.6650   -0.1861 H         1 <0>         0.0000
     42 H15        -1.0332   -5.0911   -1.7523 H         1 <0>         0.0000
     43 H16        -2.5459   -5.7980   -2.3407 H         1 <0>         0.0000
     44 H17        -2.1631   -4.7992    0.5404 H         1 <0>         0.0000
     45 H18        -3.6509   -5.4203   -0.1760 H         1 <0>         0.0000
     46 H19        -6.1795   -2.8150   -3.1351 H         1 <0>         0.0000
     47 H20        -5.8575   -1.0772   -3.2951 H         1 <0>         0.0000
     48 H21         0.2786    2.5209    3.6394 H         1 <0>         0.0000
     49 H22         0.7631    1.0508    4.4941 H         1 <0>         0.0000
     50 H23         2.3320    0.4449    2.6645 H         1 <0>         0.0000
     51 H24         1.9313    1.9347    1.7896 H         1 <0>         0.0000
     52 H25        -0.7915   -6.9124   -0.0720 H         1 <0>         0.0000
     53 H26        -0.9527   -7.5854   -1.7171 H         1 <0>         0.0000
     54 H27         2.2059    2.5392    5.4144 H         1 <0>         0.0000
     55 H28         2.4598    3.3864    4.0350 H         1 <0>         0.0000
     56 H29        -0.3758    1.1507    1.6634 H         1 <0>         0.0000
     57 H30         0.0187   -0.2403    2.4194 H         1 <0>         0.0000
@<TRIPOS>BOND
     1    1    2 1
     2    1    5 2
     3    1    4 1
     4    2    3 2
     5    2    7 1
     6    3   11 1
     7    3   27 1
     8    4   19 am
     9    4   23 2
    10    5   20 1
    11    5   27 1
    12    6   20 am
    13    6   19 am
    14    6   24 2
    15    7   28 1
    16    7   29 1
    17    7   30 1
    18    8   18 1
    19    8   31 1
    20    8   32 1
    21    8   33 1
    22    9   18 1
    23    9   34 1
    24    9   35 1
    25    9   36 1
    26   10   25 1
    27   10   37 1
    28   10   38 1
    29   10   39 1
    30   11   22 1
    31   11   40 1
    32   11   41 1
    33   12   13 1
    34   12   17 1
    35   12   42 1
    36   12   43 1
    37   13   20 1
    38   13   44 1
    39   13   45 1
    40   14   18 1
    41   14   19 1
    42   14   46 1
    43   14   47 1
    44   15   16 1
    45   15   21 1
    46   15   48 1
    47   15   49 1
    48   16   22 1
    49   16   50 1
    50   16   51 1
    51   17   26 1
    52   17   52 1
    53   17   53 1
    54   18   25 1
    55   21   54 1
    56   21   55 1
    57   22   56 1
    58   22   57 1
