@<TRIPOS>MOLECULE
*****
   47    50     0     0     0
SMALL
NO_CHARGES

@<TRIPOS>ATOM
      1 C1          1.7219    2.2901    5.6388 C.ar      1 <0>         0.0000
      2 C2          0.4710    2.3198    6.2476 C.ar      1 <0>         0.0000
      3 C3         -0.6438    2.4682    1.4925 C.ar      1 <0>         0.0000
      4 C4          1.9241    1.5164    4.4889 C.ar      1 <0>         0.0000
      5 C5         -1.9272    2.8731    1.1389 C.ar      1 <0>         0.0000
      6 C6         -1.5682    0.1703    3.9499 C.2       1 <0>         0.0000
      7 C7         -2.7528    0.2670    4.5799 C.2       1 <0>         0.0000
      8 C8         -0.5872    1.5909    5.6865 C.ar      1 <0>         0.0000
      9 C9         -0.4076    0.8335    4.5031 C.ar      1 <0>         0.0000
     10 C10        -0.1232    1.2582    1.0179 C.ar      1 <0>         0.0000
     11 C11        -0.8742    0.4257    0.1756 C.ar      1 <0>         0.0000
     12 C12         0.8813    0.7868    3.9132 C.ar      1 <0>         0.0000
     13 C13        -2.1509    0.8657   -0.2264 C.ar      1 <0>         0.0000
     14 C14        -2.6682    2.0682    0.2784 C.ar      1 <0>         0.0000
     15 C15        -1.9025    1.6551    6.3498 C.2       1 <0>         0.0000
     16 C16         1.1250   -1.2034    0.0040 C.3       1 <0>         0.0000
     17 C17        -0.3461   -0.8956   -0.3681 C.3       1 <0>         0.0000
     18 C18         1.2434    0.8129    1.4941 C.3       1 <0>         0.0000
     19 C19         1.9454    0.0289    0.3641 C.3       1 <0>         0.0000
     20 C20        -1.2157   -2.0931    0.0705 C.3       1 <0>         0.0000
     21 C21         3.3883   -0.3745    0.7498 C.3       1 <0>         0.0000
     22 N1          1.1554    0.0251    2.7446 N.pl3     1 <0>         0.0000
     23 O1         -2.1547    2.2606    7.3690 O.2       1 <0>         0.0000
     24 O2         -2.9417    0.9540    5.7419 O.3       1 <0>         0.0000
     25 O3         -2.8447    0.1020   -1.1227 O.3       1 <0>         0.0000
     26 O4          2.0303    0.8387   -0.8028 O.3       1 <0>         0.0000
     27 F1          4.0512   -0.8728   -0.3166 F         1 <0>         0.0000
     28 F2          4.0856    0.7219    1.1724 F         1 <0>         0.0000
     29 F3          3.4602   -1.2988    1.7264 F         1 <0>         0.0000
     30 Cl1        -4.2827    2.5708   -0.2250 Cl        1 <0>         0.0000
     31 H1          2.5518    2.8449    6.0671 H         1 <0>         0.0000
     32 H2          0.2897    2.8924    7.1510 H         1 <0>         0.0000
     33 H3         -0.0483    3.0909    2.1540 H         1 <0>         0.0000
     34 H4          2.9092    1.4547    4.0339 H         1 <0>         0.0000
     35 H5         -2.3494    3.8000    1.5130 H         1 <0>         0.0000
     36 H6         -1.5343   -0.3681    3.0111 H         1 <0>         0.0000
     37 H7         -3.6773   -0.1767    4.2276 H         1 <0>         0.0000
     38 H8          1.1607   -1.8888    0.8553 H         1 <0>         0.0000
     39 H9          1.6067   -1.7197   -0.8300 H         1 <0>         0.0000
     40 H10        -0.4109   -0.8220   -1.4585 H         1 <0>         0.0000
     41 H11         1.8467    1.6943    1.7262 H         1 <0>         0.0000
     42 H12        -1.2097   -2.1964    1.1627 H         1 <0>         0.0000
     43 H13        -0.8144   -3.0213   -0.3506 H         1 <0>         0.0000
     44 H14        -2.2489   -1.9862   -0.2594 H         1 <0>         0.0000
     45 H15         0.4717   -0.7161    2.6306 H         1 <0>         0.0000
     46 H16        -3.6834    0.5506   -1.3341 H         1 <0>         0.0000
     47 H17         2.4193    1.6980   -0.5690 H         1 <0>         0.0000
@<TRIPOS>BOND
     1    1    2 ar
     2    1    4 ar
     3    1   31 1
     4    2    8 ar
     5    2   32 1
     6    3    5 ar
     7    3   10 ar
     8    3   33 1
     9    4   12 ar
    10    4   34 1
    11    5   14 ar
    12    5   35 1
    13    6    9 1
    14    6    7 2
    15    6   36 1
    16    7   24 1
    17    7   37 1
    18    8    9 ar
    19    8   15 1
    20    9   12 ar
    21   10   11 ar
    22   10   18 1
    23   11   13 ar
    24   11   17 1
    25   12   22 1
    26   13   14 ar
    27   13   25 1
    28   14   30 1
    29   15   23 2
    30   15   24 1
    31   16   17 1
    32   16   19 1
    33   16   38 1
    34   16   39 1
    35   17   20 1
    36   17   40 1
    37   18   19 1
    38   18   22 1
    39   18   41 1
    40   19   21 1
    41   19   26 1
    42   20   42 1
    43   20   43 1
    44   20   44 1
    45   21   27 1
    46   21   28 1
    47   21   29 1
    48   22   45 1
    49   25   46 1
    50   26   47 1
