@<TRIPOS>MOLECULE
*****
   57    58     0     0     0
SMALL
NO_CHARGES

@<TRIPOS>ATOM
      1 C1         -3.0750   -0.9616   -0.7336 C.2       1 <0>         0.0000
      2 C2         -2.1150    0.1024   -0.6810 C.2       1 <0>         0.0000
      3 C3         -0.9146   -0.3240   -0.1501 C.2       1 <0>         0.0000
      4 C4         -4.4509   -0.8866   -1.2195 C.2       1 <0>         0.0000
      5 C5         -2.5942   -2.1641   -0.2467 C.2       1 <0>         0.0000
      6 C6         -4.6493   -3.3182   -0.7139 C.2       1 <0>         0.0000
      7 C7         -2.4077    1.4932   -1.1684 C.3       1 <0>         0.0000
      8 C8         -7.7280   -2.5574   -4.0431 C.3       1 <0>         0.0000
      9 C9         -5.5707   -3.8035   -3.7347 C.3       1 <0>         0.0000
     10 C10        -6.0799   -0.2329   -4.3955 C.3       1 <0>         0.0000
     11 C11         0.3121    0.4540    0.1133 C.3       1 <0>         0.0000
     12 C12        -2.1736   -5.4113   -0.8096 C.3       1 <0>         0.0000
     13 C13        -2.7925   -4.5749    0.3154 C.3       1 <0>         0.0000
     14 C14        -6.4254   -2.1796   -1.9502 C.3       1 <0>         0.0000
     15 C15        -0.6148    2.2808    3.4715 C.3       1 <0>         0.0000
     16 C16        -0.6734    1.9500    1.9770 C.3       1 <0>         0.0000
     17 C17        -1.5181   -6.6743   -0.2742 C.3       1 <0>         0.0000
     18 C18        -6.3067   -2.4881   -3.4667 C.3       1 <0>         0.0000
     19 N1         -5.1143   -2.1289   -1.2738 N.am      1 <0>         0.0000
     20 N2         -3.3390   -3.2999   -0.1821 N.am      1 <0>         0.0000
     21 N3         -1.6547    3.2671    3.7394 N.3       1 <0>         0.0000
     22 N4          0.3794    0.9377    1.5901 N.4       1 <0>         0.0000
     23 O1         -5.0026    0.1597   -1.5396 O.2       1 <0>         0.0000
     24 O2         -5.3097   -4.3422   -0.6712 O.2       1 <0>         0.0000
     25 O3         -5.4855   -1.4965   -4.1066 O.3       1 <0>         0.0000
     26 F1         -2.4556   -7.4257    0.4485 F         1 <0>         0.0000
     27 S1         -0.9379   -2.0449    0.2804 S.3       1 <0>         0.0000
     28 H1         -3.2151    1.9451   -0.5858 H         1 <0>         0.0000
     29 H2         -1.5305    2.1430   -1.1237 H         1 <0>         0.0000
     30 H3         -2.7664    1.4605   -2.1999 H         1 <0>         0.0000
     31 H4         -8.3176   -1.6654   -3.8124 H         1 <0>         0.0000
     32 H5         -7.6861   -2.6729   -5.1298 H         1 <0>         0.0000
     33 H6         -8.2558   -3.4228   -3.6319 H         1 <0>         0.0000
     34 H7         -4.5234   -3.7265   -3.4277 H         1 <0>         0.0000
     35 H8         -5.5827   -4.0066   -4.8087 H         1 <0>         0.0000
     36 H9         -6.0317   -4.6381   -3.2032 H         1 <0>         0.0000
     37 H10        -5.2683    0.4035   -4.7549 H         1 <0>         0.0000
     38 H11        -6.5150    0.2368   -3.5070 H         1 <0>         0.0000
     39 H12        -6.8379   -0.3141   -5.1833 H         1 <0>         0.0000
     40 H13         1.2288   -0.1232   -0.0339 H         1 <0>         0.0000
     41 H14         0.3686    1.3592   -0.4916 H         1 <0>         0.0000
     42 H15        -1.4116   -4.8322   -1.3457 H         1 <0>         0.0000
     43 H16        -2.9566   -5.6762   -1.5259 H         1 <0>         0.0000
     44 H17        -2.0579   -4.3410    1.0929 H         1 <0>         0.0000
     45 H18        -3.6103   -5.1209    0.7823 H         1 <0>         0.0000
     46 H19        -6.8968   -1.2094   -1.7986 H         1 <0>         0.0000
     47 H20        -7.0229   -2.9459   -1.4583 H         1 <0>         0.0000
     48 H21        -0.6967    1.3517    4.0622 H         1 <0>         0.0000
     49 H22         0.3571    2.7277    3.7086 H         1 <0>         0.0000
     50 H23        -0.5044    2.8449    1.3766 H         1 <0>         0.0000
     51 H24        -1.6345    1.5149    1.7007 H         1 <0>         0.0000
     52 H25        -0.6924   -6.4453    0.4095 H         1 <0>         0.0000
     53 H26        -1.1462   -7.3022   -1.0887 H         1 <0>         0.0000
     54 H27        -1.4432    3.8040    4.5764 H         1 <0>         0.0000
     55 H28        -2.5601    2.8254    3.8825 H         1 <0>         0.0000
     56 H29         0.2838    0.1124    2.1938 H         1 <0>         0.0000
     57 H30         1.3111    1.3280    1.7766 H         1 <0>         0.0000
@<TRIPOS>BOND
     1    1    2 1
     2    1    5 2
     3    1    4 1
     4    2    3 2
     5    2    7 1
     6    3   11 1
     7    3   27 1
     8    4   19 am
     9    4   23 2
    10    5   20 1
    11    5   27 1
    12    6   20 am
    13    6   19 am
    14    6   24 2
    15    7   28 1
    16    7   29 1
    17    7   30 1
    18    8   18 1
    19    8   31 1
    20    8   32 1
    21    8   33 1
    22    9   18 1
    23    9   34 1
    24    9   35 1
    25    9   36 1
    26   10   25 1
    27   10   37 1
    28   10   38 1
    29   10   39 1
    30   11   22 1
    31   11   40 1
    32   11   41 1
    33   12   13 1
    34   12   17 1
    35   12   42 1
    36   12   43 1
    37   13   20 1
    38   13   44 1
    39   13   45 1
    40   14   18 1
    41   14   19 1
    42   14   46 1
    43   14   47 1
    44   15   16 1
    45   15   21 1
    46   15   48 1
    47   15   49 1
    48   16   22 1
    49   16   50 1
    50   16   51 1
    51   17   26 1
    52   17   52 1
    53   17   53 1
    54   18   25 1
    55   21   54 1
    56   21   55 1
    57   22   56 1
    58   22   57 1
