@<TRIPOS>MOLECULE
*****
   40    42     0     0     0
SMALL
NO_CHARGES

@<TRIPOS>ATOM
      1 C1          2.0960   -2.4108   -1.4984 C.ar      1 <0>         0.0000
      2 C2         -0.1813   -3.1208   -1.1957 C.ar      1 <0>         0.0000
      3 C3          2.1799   -3.1492   -2.6814 C.ar      1 <0>         0.0000
      4 C4         -0.1158   -3.8633   -2.3756 C.ar      1 <0>         0.0000
      5 C5          2.0056   -5.3350    2.4531 C.2       1 <0>         0.0000
      6 C6          1.1128   -4.6666    1.6449 C.2       1 <0>         0.0000
      7 C7          1.7734   -3.3881    3.3258 C.2       1 <0>         0.0000
      8 C8          0.9227   -2.3878   -0.7334 C.ar      1 <0>         0.0000
      9 C9          1.0700   -3.8749   -3.1116 C.ar      1 <0>         0.0000
     10 C10         0.9287    0.8432   -0.4933 C.3       1 <0>         0.0000
     11 C11         0.6510    1.0528    0.9749 C.3       1 <0>         0.0000
     12 C12         0.1522   -0.2022    0.2806 C.3       1 <0>         0.0000
     13 C13        -3.8718    0.3105    1.3517 C.3       1 <0>         0.0000
     14 C14         0.1742   -2.2942    1.7160 C.3       1 <0>         0.0000
     15 C15        -2.4146   -0.1127    1.5427 C.3       1 <0>         0.0000
     16 C16         0.8687   -1.5485    0.5483 C.3       1 <0>         0.0000
     17 N1          2.4120   -4.5294    3.4983 N.2       1 <0>         0.0000
     18 N2          0.9639   -3.4103    2.2139 N.pl3     1 <0>         0.0000
     19 O1          2.1920   -1.2095    0.9739 O.3       1 <0>         0.0000
     20 S1         -1.6133   -0.2706   -0.1067 S.3       1 <0>         0.0000
     21 Cl1         1.1634   -4.8139   -4.5926 Cl        1 <0>         0.0000
     22 H1          2.9594   -1.8445   -1.1667 H         1 <0>         0.0000
     23 H2         -1.1165   -3.1128   -0.6482 H         1 <0>         0.0000
     24 H3          3.0980   -3.1613   -3.2605 H         1 <0>         0.0000
     25 H4         -0.9774   -4.4264   -2.7203 H         1 <0>         0.0000
     26 H5          2.3744   -6.3466    2.3415 H         1 <0>         0.0000
     27 H6          0.5959   -4.9502    0.7408 H         1 <0>         0.0000
     28 H7          1.8394   -2.5161    3.9648 H         1 <0>         0.0000
     29 H8          0.3788    1.4378   -1.2146 H         1 <0>         0.0000
     30 H9          1.9433    0.5839   -0.7756 H         1 <0>         0.0000
     31 H10         1.4828    0.9376    1.6603 H         1 <0>         0.0000
     32 H11        -0.0895    1.7960    1.2527 H         1 <0>         0.0000
     33 H12        -3.9378    1.2814    0.8524 H         1 <0>         0.0000
     34 H13        -4.4237   -0.4188    0.7500 H         1 <0>         0.0000
     35 H14        -4.3702    0.3879    2.3238 H         1 <0>         0.0000
     36 H15         0.0500   -1.5864    2.5379 H         1 <0>         0.0000
     37 H16        -0.8128   -2.6524    1.4251 H         1 <0>         0.0000
     38 H17        -2.3646   -1.0630    2.0812 H         1 <0>         0.0000
     39 H18        -1.8652    0.6349    2.1216 H         1 <0>         0.0000
     40 H19         2.6420   -2.0341    1.2268 H         1 <0>         0.0000
@<TRIPOS>BOND
     1    1    3 ar
     2    1    8 ar
     3    1   22 1
     4    2    4 ar
     5    2    8 ar
     6    2   23 1
     7    3    9 ar
     8    3   24 1
     9    4    9 ar
    10    4   25 1
    11    5    6 2
    12    5   17 1
    13    5   26 1
    14    6   18 1
    15    6   27 1
    16    7   17 2
    17    7   18 1
    18    7   28 1
    19    8   16 1
    20    9   21 1
    21   10   11 1
    22   10   12 1
    23   10   29 1
    24   10   30 1
    25   11   12 1
    26   11   31 1
    27   11   32 1
    28   12   16 1
    29   12   20 1
    30   13   15 1
    31   13   33 1
    32   13   34 1
    33   13   35 1
    34   14   16 1
    35   14   18 1
    36   14   36 1
    37   14   37 1
    38   15   20 1
    39   15   38 1
    40   15   39 1
    41   16   19 1
    42   19   40 1
