@<TRIPOS>MOLECULE
*****
   56    57     0     0     0
SMALL
NO_CHARGES

@<TRIPOS>ATOM
      1 C1         -3.4142   -1.3190   -0.9293 C.2       1 <0>         0.0000
      2 C2         -2.5606   -0.1644   -0.7609 C.2       1 <0>         0.0000
      3 C3         -1.3637   -0.4940   -0.1839 C.2       1 <0>         0.0000
      4 C4         -4.7487   -1.3646   -1.5029 C.2       1 <0>         0.0000
      5 C5         -2.8430   -2.4867   -0.4672 C.2       1 <0>         0.0000
      6 C6         -4.7253   -3.8371   -1.1126 C.2       1 <0>         0.0000
      7 C7         -2.9432    1.2275   -1.1808 C.3       1 <0>         0.0000
      8 C8         -7.7660   -3.2771   -4.5060 C.3       1 <0>         0.0000
      9 C9         -5.4822   -4.2734   -4.1967 C.3       1 <0>         0.0000
     10 C10        -6.3801   -0.7526   -4.7174 C.3       1 <0>         0.0000
     11 C11        -0.2022    0.3960    0.1760 C.3       1 <0>         0.0000
     12 C12        -1.9766   -5.5995   -1.0899 C.3       1 <0>         0.0000
     13 C13        -2.8243   -4.9256   -0.0049 C.3       1 <0>         0.0000
     14 C14        -6.5457   -2.8191   -2.3799 C.3       1 <0>         0.0000
     15 C15        -1.2425    1.8907    3.5071 C.3       1 <0>         0.0000
     16 C16        -0.8544    0.8054    2.5048 C.3       1 <0>         0.0000
     17 C17        -1.1651   -6.7615   -0.5476 C.3       1 <0>         0.0000
     18 C18        -6.3696   -3.0613   -3.9021 C.3       1 <0>         0.0000
     19 N1         -5.2761   -2.6738   -1.6523 N.am      1 <0>         0.0000
     20 N2         -3.4764   -3.7077   -0.5008 N.am      1 <0>         0.0000
     21 N3         -1.5263    1.2851    4.8179 N.3       1 <0>         0.0000
     22 N4         -0.5640    1.3909    1.1936 N.3       1 <0>         0.0000
     23 O1         -5.4030   -0.3800   -1.8365 O.2       1 <0>         0.0000
     24 O2         -5.2899   -4.9262   -1.1649 O.2       1 <0>         0.0000
     25 O3         -5.6668   -1.9687   -4.5178 O.3       1 <0>         0.0000
     26 F1         -2.0170   -7.7372   -0.0001 F         1 <0>         0.0000
     27 S1         -1.2551   -2.2192    0.1818 S.3       1 <0>         0.0000
     28 H1         -3.8551    1.5443   -0.6675 H         1 <0>         0.0000
     29 H2         -2.1487    1.9358   -0.9442 H         1 <0>         0.0000
     30 H3         -3.1650    1.2578   -2.2518 H         1 <0>         0.0000
     31 H4         -8.4593   -2.4697   -4.2507 H         1 <0>         0.0000
     32 H5         -7.6965   -3.3413   -5.5961 H         1 <0>         0.0000
     33 H6         -8.1931   -4.2142   -4.1364 H         1 <0>         0.0000
     34 H7         -4.4592   -4.0845   -3.8600 H         1 <0>         0.0000
     35 H8         -5.4509   -4.4397   -5.2773 H         1 <0>         0.0000
     36 H9         -5.8519   -5.1710   -3.6981 H         1 <0>         0.0000
     37 H10        -5.6406   -0.0267   -5.0632 H         1 <0>         0.0000
     38 H11        -6.8202   -0.3707   -3.7911 H         1 <0>         0.0000
     39 H12        -7.1559   -0.8603   -5.4869 H         1 <0>         0.0000
     40 H13         0.6490   -0.2371    0.4859 H         1 <0>         0.0000
     41 H14         0.1238    0.9411   -0.7174 H         1 <0>         0.0000
     42 H15        -1.2759   -4.8755   -1.5233 H         1 <0>         0.0000
     43 H16        -2.6342   -5.9473   -1.8925 H         1 <0>         0.0000
     44 H17        -2.2123   -4.6481    0.8592 H         1 <0>         0.0000
     45 H18        -3.6054   -5.6023    0.3371 H         1 <0>         0.0000
     46 H19        -7.1140   -1.9049   -2.2113 H         1 <0>         0.0000
     47 H20        -7.0849   -3.6581   -1.9410 H         1 <0>         0.0000
     48 H21        -2.0758    2.4742    3.0854 H         1 <0>         0.0000
     49 H22        -0.3993    2.5816    3.6357 H         1 <0>         0.0000
     50 H23        -0.0131    0.2197    2.9144 H         1 <0>         0.0000
     51 H24        -1.6949    0.1121    2.3820 H         1 <0>         0.0000
     52 H25        -0.4874   -6.4431    0.2529 H         1 <0>         0.0000
     53 H26        -0.5844   -7.2443   -1.3394 H         1 <0>         0.0000
     54 H27        -2.3811    0.7329    4.7589 H         1 <0>         0.0000
     55 H28        -1.7082    2.0167    5.5026 H         1 <0>         0.0000
     56 H29         0.2121    2.0451    1.2863 H         1 <0>         0.0000
@<TRIPOS>BOND
     1    1    2 1
     2    1    5 2
     3    1    4 1
     4    2    3 2
     5    2    7 1
     6    3   11 1
     7    3   27 1
     8    4   19 am
     9    4   23 2
    10    5   20 1
    11    5   27 1
    12    6   20 am
    13    6   19 am
    14    6   24 2
    15    7   28 1
    16    7   29 1
    17    7   30 1
    18    8   18 1
    19    8   31 1
    20    8   32 1
    21    8   33 1
    22    9   18 1
    23    9   34 1
    24    9   35 1
    25    9   36 1
    26   10   25 1
    27   10   37 1
    28   10   38 1
    29   10   39 1
    30   11   22 1
    31   11   40 1
    32   11   41 1
    33   12   13 1
    34   12   17 1
    35   12   42 1
    36   12   43 1
    37   13   20 1
    38   13   44 1
    39   13   45 1
    40   14   18 1
    41   14   19 1
    42   14   46 1
    43   14   47 1
    44   15   16 1
    45   15   21 1
    46   15   48 1
    47   15   49 1
    48   16   22 1
    49   16   50 1
    50   16   51 1
    51   17   26 1
    52   17   52 1
    53   17   53 1
    54   18   25 1
    55   21   54 1
    56   21   55 1
    57   22   56 1
