@<TRIPOS>MOLECULE
*****
   71    76     0     0     0
SMALL
NO_CHARGES

@<TRIPOS>ATOM
      1 C1          5.3705    1.1830    1.7878 C.ar      1 <0>         0.0000
      2 C2          3.3296   -2.6109    7.1093 C.ar      1 <0>         0.0000
      3 C3          4.9899    0.4288    2.8971 C.ar      1 <0>         0.0000
      4 C4          4.5339   -2.2597    6.4983 C.ar      1 <0>         0.0000
      5 C5          7.6435    0.3819    2.0008 C.ar      1 <0>         0.0000
      6 C6          6.6852    1.1568    1.3168 C.ar      1 <0>         0.0000
      7 C7          2.1188   -2.1826    6.5678 C.ar      1 <0>         0.0000
      8 C8          5.9292   -0.3619    3.5790 C.ar      1 <0>         0.0000
      9 C9          7.2758   -0.3575    3.1153 C.ar      1 <0>         0.0000
     10 C10         2.1739   -1.3778    5.4021 C.ar      1 <0>         0.0000
     11 C11         4.4830   -1.4698    5.3377 C.ar      1 <0>         0.0000
     12 C12        -0.2816   -1.8718    6.7495 C.2       1 <0>         0.0000
     13 C13         7.0419    1.9706    0.1252 C.2       1 <0>         0.0000
     14 C14         0.0083    0.8669    1.6837 C.3       1 <0>         0.0000
     15 C15         1.1457   -0.0711    1.1792 C.3       1 <0>         0.0000
     16 C16        -0.3021    0.4038    3.1223 C.3       1 <0>         0.0000
     17 C17         1.5063   -0.9687    2.3820 C.3       1 <0>         0.0000
     18 C18         8.6505    0.0190   -3.7465 C.3       1 <0>         0.0000
     19 C19         8.3923    0.1271   -1.0374 C.3       1 <0>         0.0000
     20 C20         8.4015    2.0669   -1.9616 C.3       1 <0>         0.0000
     21 C21        10.0895   -0.4531   -4.0943 C.3       1 <0>         0.0000
     22 C22        -0.0806   -0.6766    5.8203 C.3       1 <0>         0.0000
     23 C23         1.0439   -0.1567    3.6067 C.3       1 <0>         0.0000
     24 C24         8.9222    0.6792   -2.3761 C.3       1 <0>         0.0000
     25 C25         0.1639    0.5972    6.6523 C.3       1 <0>         0.0000
     26 C26         0.7702   -3.6546    8.0509 C.3       1 <0>         0.0000
     27 C27         9.5141   -1.1541    3.4760 C.3       1 <0>         0.0000
     28 N1          3.3273   -1.0311    4.8231 N.ar      1 <0>         0.0000
     29 N2          0.8614   -2.5573    7.0927 N.am      1 <0>         0.0000
     30 N3          0.9800   -0.9526    4.8427 N.pl3     1 <0>         0.0000
     31 N4          8.1264    1.5263   -0.6158 N.am      1 <0>         0.0000
     32 N5          5.6760   -1.1410    4.7014 N.pl3     1 <0>         0.0000
     33 O1         -1.3950   -2.1548    7.1872 O.2       1 <0>         0.0000
     34 O2          6.4384    2.9936   -0.2027 O.2       1 <0>         0.0000
     35 O3         11.3712    1.7465   -3.0603 O.2       1 <0>         0.0000
     36 O4         11.3860   -0.3880   -1.6487 O.2       1 <0>         0.0000
     37 O5          8.1418   -1.1243    3.8637 O.3       1 <0>         0.0000
     38 S1         10.7456    0.4791   -2.6516 S.o2      1 <0>         0.0000
     39 H1          4.6435    1.8052    1.2752 H         1 <0>         0.0000
     40 H2          3.3461   -3.2290    8.0005 H         1 <0>         0.0000
     41 H3          3.9720    0.4440    3.2539 H         1 <0>         0.0000
     42 H4          5.4819   -2.5945    6.9087 H         1 <0>         0.0000
     43 H5          8.6763    0.4042    1.6767 H         1 <0>         0.0000
     44 H6          0.3462    1.9081    1.6899 H         1 <0>         0.0000
     45 H7         -0.8823    0.8272    1.0505 H         1 <0>         0.0000
     46 H8          0.8357   -0.6662    0.3157 H         1 <0>         0.0000
     47 H9          2.0143    0.5148    0.8622 H         1 <0>         0.0000
     48 H10        -0.6967    1.2115    3.7453 H         1 <0>         0.0000
     49 H11        -1.0462   -0.4013    3.1038 H         1 <0>         0.0000
     50 H12         0.9293   -1.9008    2.3627 H         1 <0>         0.0000
     51 H13         2.5628   -1.2309    2.4223 H         1 <0>         0.0000
     52 H14         8.2820    0.7534   -4.4657 H         1 <0>         0.0000
     53 H15         7.9329   -0.8014   -3.6823 H         1 <0>         0.0000
     54 H16         7.4820   -0.4745   -1.1453 H         1 <0>         0.0000
     55 H17         9.1261   -0.4136   -0.4350 H         1 <0>         0.0000
     56 H18         9.1307    2.8807   -1.9915 H         1 <0>         0.0000
     57 H19         7.4893    2.3681   -2.4890 H         1 <0>         0.0000
     58 H20        10.2676   -1.5212   -3.9628 H         1 <0>         0.0000
     59 H21        10.5017   -0.0976   -5.0389 H         1 <0>         0.0000
     60 H22        -1.0239   -0.5826    5.2878 H         1 <0>         0.0000
     61 H23         1.7367    0.6848    3.7558 H         1 <0>         0.0000
     62 H24         1.0916    0.5174    7.2276 H         1 <0>         0.0000
     63 H25        -0.6664    0.7580    7.3458 H         1 <0>         0.0000
     64 H26         0.2435    1.4690    5.9965 H         1 <0>         0.0000
     65 H27         1.2164   -3.3767    9.0127 H         1 <0>         0.0000
     66 H28         1.2842   -4.5371    7.6582 H         1 <0>         0.0000
     67 H29        -0.2843   -3.8776    8.2040 H         1 <0>         0.0000
     68 H30        10.0141   -1.8066    4.1926 H         1 <0>         0.0000
     69 H31         9.9591   -0.1535    3.5197 H         1 <0>         0.0000
     70 H32         9.6308   -1.5646    2.4661 H         1 <0>         0.0000
     71 H33         6.5058   -1.5728    5.0882 H         1 <0>         0.0000
@<TRIPOS>BOND
     1    1    3 ar
     2    1    6 ar
     3    1   39 1
     4    2    4 ar
     5    2    7 ar
     6    2   40 1
     7    3    8 ar
     8    3   41 1
     9    4   11 ar
    10    4   42 1
    11    5    6 ar
    12    5    9 ar
    13    5   43 1
    14    6   13 1
    15    7   10 ar
    16    7   29 1
    17    8    9 ar
    18    8   32 1
    19    9   37 1
    20   10   28 ar
    21   10   30 1
    22   11   28 ar
    23   11   32 1
    24   12   22 1
    25   12   29 am
    26   12   33 2
    27   13   31 am
    28   13   34 2
    29   14   15 1
    30   14   16 1
    31   14   44 1
    32   14   45 1
    33   15   17 1
    34   15   46 1
    35   15   47 1
    36   16   23 1
    37   16   48 1
    38   16   49 1
    39   17   23 1
    40   17   50 1
    41   17   51 1
    42   18   21 1
    43   18   24 1
    44   18   52 1
    45   18   53 1
    46   19   24 1
    47   19   31 1
    48   19   54 1
    49   19   55 1
    50   20   24 1
    51   20   31 1
    52   20   56 1
    53   20   57 1
    54   21   38 1
    55   21   58 1
    56   21   59 1
    57   22   25 1
    58   22   30 1
    59   22   60 1
    60   23   30 1
    61   23   61 1
    62   24   38 1
    63   25   62 1
    64   25   63 1
    65   25   64 1
    66   26   29 1
    67   26   65 1
    68   26   66 1
    69   26   67 1
    70   27   37 1
    71   27   68 1
    72   27   69 1
    73   27   70 1
    74   32   71 1
    75   35   38 2
    76   36   38 2
