@<TRIPOS>MOLECULE
*****
   29    30     0     0     0
SMALL
NO_CHARGES

@<TRIPOS>ATOM
      1 C1          6.5971   -1.2456    5.5059 C.ar      1 <0>         0.0000
      2 C2          2.0408   -0.9398   -0.1133 C.ar      1 <0>         0.0000
      3 C3          2.6397   -1.9833    0.5960 C.ar      1 <0>         0.0000
      4 C4          5.9712   -2.3882    6.0225 C.ar      1 <0>         0.0000
      5 C5          5.8518   -0.3523    4.7341 C.ar      1 <0>         0.0000
      6 C6          1.3366    0.0507    0.5779 C.ar      1 <0>         0.0000
      7 C7          2.5309   -2.0265    1.9885 C.ar      1 <0>         0.0000
      8 C8          4.6208   -2.6283    5.7749 C.ar      1 <0>         0.0000
      9 C9          4.4950   -0.5816    4.4731 C.ar      1 <0>         0.0000
     10 C10         1.2209    0.0221    1.9740 C.ar      1 <0>         0.0000
     11 C11         1.8327   -1.0327    2.6819 C.ar      1 <0>         0.0000
     12 C12         3.8778   -1.7235    5.0014 C.ar      1 <0>         0.0000
     13 C13         0.4529    1.1064    2.6968 C.3       1 <0>         0.0000
     14 C14         1.7014   -1.0967    4.1923 C.3       1 <0>         0.0000
     15 O1          2.5562   -2.0527    4.8152 O.3       1 <0>         0.0000
     16 H1          7.6497   -1.0594    5.6998 H         1 <0>         0.0000
     17 H2          2.1198   -0.8947   -1.1965 H         1 <0>         0.0000
     18 H3          3.1904   -2.7595    0.0709 H         1 <0>         0.0000
     19 H4          6.5369   -3.0945    6.6248 H         1 <0>         0.0000
     20 H5          6.3257    0.5329    4.3174 H         1 <0>         0.0000
     21 H6          0.8680    0.8620    0.0248 H         1 <0>         0.0000
     22 H7          2.9972   -2.8321    2.5464 H         1 <0>         0.0000
     23 H8          4.1195   -3.5060    6.1728 H         1 <0>         0.0000
     24 H9          3.9486    0.1106    3.8432 H         1 <0>         0.0000
     25 H10        -0.3503    0.6930    3.3179 H         1 <0>         0.0000
     26 H11         1.1020    1.6901    3.3613 H         1 <0>         0.0000
     27 H12        -0.0023    1.8020    1.9873 H         1 <0>         0.0000
     28 H13         1.8604   -0.1097    4.6438 H         1 <0>         0.0000
     29 H14         0.6897   -1.4153    4.4654 H         1 <0>         0.0000
@<TRIPOS>BOND
     1    1    5 ar
     2    1    4 ar
     3    1   16 1
     4    2    3 ar
     5    2    6 ar
     6    2   17 1
     7    3    7 ar
     8    3   18 1
     9    4    8 ar
    10    4   19 1
    11    5    9 ar
    12    5   20 1
    13    6   10 ar
    14    6   21 1
    15    7   11 ar
    16    7   22 1
    17    8   12 ar
    18    8   23 1
    19    9   12 ar
    20    9   24 1
    21   10   11 ar
    22   10   13 1
    23   11   14 1
    24   12   15 1
    25   13   25 1
    26   13   26 1
    27   13   27 1
    28   14   15 1
    29   14   28 1
    30   14   29 1
