@<TRIPOS>MOLECULE
*****
   47    49     0     0     0
SMALL
NO_CHARGES

@<TRIPOS>ATOM
      1 C1         -2.9747   -0.9563   -1.2663 C.2       1 <0>         0.0000
      2 C2         -1.9552    0.0143   -1.0325 C.2       1 <0>         0.0000
      3 C3         -0.9006   -0.5079   -0.3150 C.2       1 <0>         0.0000
      4 C4         -4.2205   -0.7876   -1.9742 C.2       1 <0>         0.0000
      5 C5         -2.6523   -2.1699   -0.7178 C.2       1 <0>         0.0000
      6 C6         -4.6781   -3.2366   -1.4491 C.2       1 <0>         0.0000
      7 C7          1.8402    1.5778   -1.3497 C.2       1 <0>         0.0000
      8 C8          2.7327   -0.1060   -2.7371 C.3       1 <0>         0.0000
      9 C9          1.8545   -0.7607   -1.6814 C.3       1 <0>         0.0000
     10 C10        -2.0047    1.4235   -1.4976 C.3       1 <0>         0.0000
     11 C11        -6.0596   -1.8164   -4.2122 C.3       1 <0>         0.0000
     12 C12         0.3438    0.1580    0.1309 C.3       1 <0>         0.0000
     13 C13        -6.2706   -1.8476   -2.7366 C.3       1 <0>         0.0000
     14 C14        -2.9944   -4.5651   -0.1463 C.3       1 <0>         0.0000
     15 C15        -1.9046   -5.2739   -0.9390 C.3       1 <0>         0.0000
     16 C16        -0.9530   -6.5213   -3.1789 C.3       1 <0>         0.0000
     17 N1         -5.0011   -1.9672   -2.0254 N.am      1 <0>         0.0000
     18 N2         -3.4360   -3.3180   -0.7700 N.am      1 <0>         0.0000
     19 N3          2.7281    1.2949   -2.4005 N.am      1 <0>         0.0000
     20 N4          1.2906    0.3510   -0.9438 N.am      1 <0>         0.0000
     21 O1         -4.5488    0.2861   -2.4728 O.2       1 <0>         0.0000
     22 O2         -5.4396   -4.2070   -1.5375 O.2       1 <0>         0.0000
     23 O3          1.6058    2.6872   -0.8890 O.2       1 <0>         0.0000
     24 F1         -0.5921   -7.5702   -2.4020 F         1 <0>         0.0000
     25 F2         -1.0706   -6.9770   -4.4489 F         1 <0>         0.0000
     26 F3          0.0741   -5.6382   -3.1632 F         1 <0>         0.0000
     27 S1         -1.1477   -2.1575    0.0701 S.3       1 <0>         0.0000
     28 S2         -2.4640   -5.7507   -2.6025 S.3       1 <0>         0.0000
     29 H1          3.7617   -0.4749   -2.7157 H         1 <0>         0.0000
     30 H2          2.3198   -0.2170   -3.7437 H         1 <0>         0.0000
     31 H3          1.0481   -1.3524   -2.1244 H         1 <0>         0.0000
     32 H4          2.4385   -1.3782   -0.9918 H         1 <0>         0.0000
     33 H5         -2.4791    2.0656   -0.7420 H         1 <0>         0.0000
     34 H6         -0.9982    1.8189   -1.7000 H         1 <0>         0.0000
     35 H7         -2.5725    1.5208   -2.4351 H         1 <0>         0.0000
     36 H8         -5.5601   -2.7430   -4.5313 H         1 <0>         0.0000
     37 H9         -7.0318   -1.7306   -4.7197 H         1 <0>         0.0000
     38 H10        -5.4315   -0.9523   -4.4744 H         1 <0>         0.0000
     39 H11         0.1412    1.1524    0.5634 H         1 <0>         0.0000
     40 H12         0.8639   -0.4180    0.9146 H         1 <0>         0.0000
     41 H13        -6.7702   -0.9183   -2.4256 H         1 <0>         0.0000
     42 H14        -6.9067   -2.7085   -2.4830 H         1 <0>         0.0000
     43 H15        -2.6090   -4.2991    0.8436 H         1 <0>         0.0000
     44 H16        -3.8744   -5.2006   -0.0018 H         1 <0>         0.0000
     45 H17        -1.0193   -4.6378   -1.0401 H         1 <0>         0.0000
     46 H18        -1.6072   -6.1877   -0.4152 H         1 <0>         0.0000
     47 H19         3.2638    2.0033   -2.8922 H         1 <0>         0.0000
@<TRIPOS>BOND
     1    1    2 1
     2    1    5 2
     3    1    4 1
     4    2    3 2
     5    2   10 1
     6    3   12 1
     7    3   27 1
     8    4   17 am
     9    4   21 2
    10    5   18 1
    11    5   27 1
    12    6   18 am
    13    6   17 am
    14    6   22 2
    15    7   19 am
    16    7   20 am
    17    7   23 2
    18    8    9 1
    19    8   19 1
    20    8   29 1
    21    8   30 1
    22    9   20 1
    23    9   31 1
    24    9   32 1
    25   10   33 1
    26   10   34 1
    27   10   35 1
    28   11   13 1
    29   11   36 1
    30   11   37 1
    31   11   38 1
    32   12   20 1
    33   12   39 1
    34   12   40 1
    35   13   17 1
    36   13   41 1
    37   13   42 1
    38   14   15 1
    39   14   18 1
    40   14   43 1
    41   14   44 1
    42   15   28 1
    43   15   45 1
    44   15   46 1
    45   16   24 1
    46   16   25 1
    47   16   26 1
    48   16   28 1
    49   19   47 1
