@<TRIPOS>MOLECULE
*****
   25    27     0     0     0
SMALL
NO_CHARGES

@<TRIPOS>ATOM
      1 C1          1.8471    4.3235    1.5787 C.ar      1 <0>         0.0000
      2 C2          1.0948    4.2892    2.7503 C.ar      1 <0>         0.0000
      3 C3         -0.0278    2.2233    2.0429 C.ar      1 <0>         0.0000
      4 C4          1.7375    1.9279   -1.1434 C.2       1 <0>         0.0000
      5 C5          0.7248    2.2414    0.8522 C.ar      1 <0>         0.0000
      6 C6          0.7923    1.3752   -0.3070 C.2       1 <0>         0.0000
      7 C7          1.6553    3.3005    0.6436 C.ar      1 <0>         0.0000
      8 C8          0.1737    3.2438    2.9618 C.ar      1 <0>         0.0000
      9 C9         -1.5082    0.1280   -0.3340 C.3       1 <0>         0.0000
     10 C10        -1.2690   -0.9068    0.7945 C.3       1 <0>         0.0000
     11 C11         0.0342    0.1166   -0.5782 C.3       1 <0>         0.0000
     12 N1          2.2548    3.0845   -0.5841 N.pl3     1 <0>         0.0000
     13 N2          0.1754   -0.9889    0.4300 N.3       1 <0>         0.0000
     14 Br1        -0.8452    3.2373    4.5945 Br        1 <0>         0.0000
     15 H1          2.5600    5.1260    1.4070 H         1 <0>         0.0000
     16 H2          1.2152    5.0638    3.5000 H         1 <0>         0.0000
     17 H3         -0.7484    1.4403    2.2463 H         1 <0>         0.0000
     18 H4          2.0832    1.5780   -2.1077 H         1 <0>         0.0000
     19 H5         -2.0933   -0.2429   -1.1786 H         1 <0>         0.0000
     20 H6         -1.9145    1.0900   -0.0159 H         1 <0>         0.0000
     21 H7         -1.4689   -0.5279    1.8046 H         1 <0>         0.0000
     22 H8         -1.7885   -1.8644    0.6823 H         1 <0>         0.0000
     23 H9          0.3094   -0.2375   -1.5785 H         1 <0>         0.0000
     24 H10         2.9687    3.6659   -0.9988 H         1 <0>         0.0000
     25 H11         0.8054   -0.7475    1.1920 H         1 <0>         0.0000
@<TRIPOS>BOND
     1    1    2 ar
     2    1    7 ar
     3    1   15 1
     4    2    8 ar
     5    2   16 1
     6    3    5 ar
     7    3    8 ar
     8    3   17 1
     9    4    6 2
    10    4   12 1
    11    4   18 1
    12    5    6 1
    13    5    7 ar
    14    6   11 1
    15    7   12 1
    16    8   14 1
    17    9   10 1
    18    9   11 1
    19    9   19 1
    20    9   20 1
    21   10   13 1
    22   10   21 1
    23   10   22 1
    24   11   13 1
    25   11   23 1
    26   12   24 1
    27   13   25 1
