@<TRIPOS>MOLECULE
*****
   31    31     0     0     0
SMALL
NO_CHARGES

@<TRIPOS>ATOM
      1 C1          2.9357   -1.1188   -1.6784 C.ar      1 <0>         0.0000
      2 C2          3.0628   -0.2177   -0.6243 C.ar      1 <0>         0.0000
      3 C3          2.0145   -2.1642   -1.5510 C.ar      1 <0>         0.0000
      4 C4          1.3888   -1.4699    0.5461 C.ar      1 <0>         0.0000
      5 C5          2.2791   -0.3871    0.5253 C.ar      1 <0>         0.0000
      6 C6          4.0605    2.2750    2.2826 C.2       1 <0>         0.0000
      7 C7          1.6707    0.2949    2.9568 C.2       1 <0>         0.0000
      8 C8          5.4897    2.5961    2.6773 C.3       1 <0>         0.0000
      9 C9          0.5660    1.2874    4.9113 C.3       1 <0>         0.0000
     10 C10         4.6715   -0.1341    2.3255 C.3       1 <0>         0.0000
     11 C11         2.3760    0.6460    1.6316 C.3       1 <0>         0.0000
     12 N1          1.2512   -2.3412   -0.4668 N.ar      1 <0>         0.0000
     13 N2          1.0958    1.3739    3.5563 N.am      1 <0>         0.0000
     14 N3          3.7803    0.9701    1.9542 N.am      1 <0>         0.0000
     15 O1          3.1938    3.1592    2.2502 O.2       1 <0>         0.0000
     16 O2          1.6862   -0.8348    3.4480 O.2       1 <0>         0.0000
     17 H1          3.5295   -1.0158   -2.5825 H         1 <0>         0.0000
     18 H2          3.7650    0.6107   -0.6835 H         1 <0>         0.0000
     19 H3          1.8855   -2.8881   -2.3546 H         1 <0>         0.0000
     20 H4          0.7696   -1.6536    1.4177 H         1 <0>         0.0000
     21 H5          6.1999    2.2975    1.9000 H         1 <0>         0.0000
     22 H6          5.5602    3.6715    2.8381 H         1 <0>         0.0000
     23 H7          5.7707    2.0766    3.5990 H         1 <0>         0.0000
     24 H8         -0.1053    2.1310    5.0858 H         1 <0>         0.0000
     25 H9          1.3642    1.3003    5.6638 H         1 <0>         0.0000
     26 H10         0.0103    0.3548    5.0194 H         1 <0>         0.0000
     27 H11         4.6856   -0.2978    3.4088 H         1 <0>         0.0000
     28 H12         5.6871    0.0551    1.9730 H         1 <0>         0.0000
     29 H13         4.3120   -1.0479    1.8544 H         1 <0>         0.0000
     30 H14         1.9498    1.5767    1.2535 H         1 <0>         0.0000
     31 H15         1.3545    2.2866    3.1909 H         1 <0>         0.0000
@<TRIPOS>BOND
     1    1    2 ar
     2    1    3 ar
     3    1   17 1
     4    2    5 ar
     5    2   18 1
     6    3   12 ar
     7    3   19 1
     8    4    5 ar
     9    4   12 ar
    10    4   20 1
    11    5   11 1
    12    6    8 1
    13    6   14 am
    14    6   15 2
    15    7   11 1
    16    7   13 am
    17    7   16 2
    18    8   21 1
    19    8   22 1
    20    8   23 1
    21    9   13 1
    22    9   24 1
    23    9   25 1
    24    9   26 1
    25   10   14 1
    26   10   27 1
    27   10   28 1
    28   10   29 1
    29   11   14 1
    30   11   30 1
    31   13   31 1
