@<TRIPOS>MOLECULE
*****
   31    31     0     0     0
SMALL
NO_CHARGES

@<TRIPOS>ATOM
      1 C1          2.6516   -0.7730   -2.5442 C.ar      1 <0>         0.0000
      2 C2          2.6501    0.2379   -1.5854 C.ar      1 <0>         0.0000
      3 C3          3.0179   -2.0657   -2.1503 C.ar      1 <0>         0.0000
      4 C4          3.3594   -1.3978    0.0140 C.ar      1 <0>         0.0000
      5 C5          3.0087   -0.0711   -0.2668 C.ar      1 <0>         0.0000
      6 C6          3.8998    3.2864    0.5071 C.2       1 <0>         0.0000
      7 C7          3.0020    0.5011    2.2219 C.2       1 <0>         0.0000
      8 C8          5.0964    4.2154    0.4053 C.3       1 <0>         0.0000
      9 C9          1.5528   -0.6521    3.8702 C.3       1 <0>         0.0000
     10 C10         5.5304    1.4036    0.6143 C.3       1 <0>         0.0000
     11 C11         3.0400    1.0362    0.7754 C.3       1 <0>         0.0000
     12 N1          3.3678   -2.3824   -0.8976 N.ar      1 <0>         0.0000
     13 N2          1.7937   -0.0177    2.5814 N.am      1 <0>         0.0000
     14 N3          4.1688    1.9382    0.5682 N.am      1 <0>         0.0000
     15 O1          2.7466    3.7283    0.5175 O.2       1 <0>         0.0000
     16 O2          3.9758    0.5407    2.9709 O.2       1 <0>         0.0000
     17 H1          2.3755   -0.5721   -3.5755 H         1 <0>         0.0000
     18 H2          2.3791    1.2583   -1.8475 H         1 <0>         0.0000
     19 H3          3.0312   -2.8798   -2.8736 H         1 <0>         0.0000
     20 H4          3.6501   -1.6856    1.0233 H         1 <0>         0.0000
     21 H5          5.6302    4.0690   -0.5396 H         1 <0>         0.0000
     22 H6          4.7289    5.2403    0.4492 H         1 <0>         0.0000
     23 H7          5.8091    4.0470    1.2180 H         1 <0>         0.0000
     24 H8          1.4311   -1.7363    3.7633 H         1 <0>         0.0000
     25 H9          0.6564   -0.2352    4.3395 H         1 <0>         0.0000
     26 H10         2.4149   -0.4535    4.5070 H         1 <0>         0.0000
     27 H11         5.9931    1.5588    1.5922 H         1 <0>         0.0000
     28 H12         6.1471    1.8523   -0.1683 H         1 <0>         0.0000
     29 H13         5.4942    0.3301    0.4297 H         1 <0>         0.0000
     30 H14         2.1565    1.6648    0.6361 H         1 <0>         0.0000
     31 H15         1.0563   -0.0352    1.8889 H         1 <0>         0.0000
@<TRIPOS>BOND
     1    1    2 ar
     2    1    3 ar
     3    1   17 1
     4    2    5 ar
     5    2   18 1
     6    3   12 ar
     7    3   19 1
     8    4    5 ar
     9    4   12 ar
    10    4   20 1
    11    5   11 1
    12    6    8 1
    13    6   14 am
    14    6   15 2
    15    7   11 1
    16    7   13 am
    17    7   16 2
    18    8   21 1
    19    8   22 1
    20    8   23 1
    21    9   13 1
    22    9   24 1
    23    9   25 1
    24    9   26 1
    25   10   14 1
    26   10   27 1
    27   10   28 1
    28   10   29 1
    29   11   14 1
    30   11   30 1
    31   13   31 1
