@<TRIPOS>MOLECULE
*****
   31    33     0     0     0
SMALL
NO_CHARGES

@<TRIPOS>ATOM
      1 C1          1.9940    0.0244    0.0397 C.ar      1 <0>         0.0000
      2 C2          0.7304    0.6224   -0.0767 C.ar      1 <0>         0.0000
      3 C3          8.1980    3.8175    2.2412 C.ar      1 <0>         0.0000
      4 C4          8.9379    4.0935    1.0791 C.ar      1 <0>         0.0000
      5 C5          3.1338    0.8084   -0.1314 C.ar      1 <0>         0.0000
      6 C6          0.6184    1.9824   -0.3528 C.ar      1 <0>         0.0000
      7 C7          6.8440    3.5396    2.1372 C.ar      1 <0>         0.0000
      8 C8          8.2587    4.0700   -0.1355 C.ar      1 <0>         0.0000
      9 C9          3.0469    2.1810   -0.4094 C.ar      1 <0>         0.0000
     10 C10         1.7723    2.7662   -0.5134 C.ar      1 <0>         0.0000
     11 C11         6.2485    3.5418    0.8515 C.ar      1 <0>         0.0000
     12 C12         3.9505    4.3080   -1.3455 C.3       1 <0>         0.0000
     13 C13         2.7294    4.9456   -0.7066 C.3       1 <0>         0.0000
     14 C14         4.2979    3.0107   -0.6034 C.3       1 <0>         0.0000
     15 N1          6.9490    3.8025   -0.2648 N.ar      1 <0>         0.0000
     16 N2          4.8959    3.2945    0.7114 N.pl3     1 <0>         0.0000
     17 O1          1.5721    4.0900   -0.7941 O.3       1 <0>         0.0000
     18 H1          2.0840   -1.0374    0.2510 H         1 <0>         0.0000
     19 H2         -0.1695    0.0256    0.0484 H         1 <0>         0.0000
     20 H3          8.6782    3.8199    3.2167 H         1 <0>         0.0000
     21 H4          9.9992    4.3177    1.1173 H         1 <0>         0.0000
     22 H5          4.1212    0.3553   -0.0614 H         1 <0>         0.0000
     23 H6         -0.3511    2.4635   -0.4460 H         1 <0>         0.0000
     24 H7          6.2438    3.3247    3.0181 H         1 <0>         0.0000
     25 H8          8.7879    4.2757   -1.0654 H         1 <0>         0.0000
     26 H9          3.7421    4.0815   -2.3975 H         1 <0>         0.0000
     27 H10         4.8017    4.9912   -1.3082 H         1 <0>         0.0000
     28 H11         2.9252    5.1635    0.3513 H         1 <0>         0.0000
     29 H12         2.4362    5.8700   -1.2076 H         1 <0>         0.0000
     30 H13         5.0253    2.4485   -1.1985 H         1 <0>         0.0000
     31 H14         4.4463    2.8467    1.4990 H         1 <0>         0.0000
@<TRIPOS>BOND
     1    1    2 ar
     2    1    5 ar
     3    1   18 1
     4    2    6 ar
     5    2   19 1
     6    3    4 ar
     7    3    7 ar
     8    3   20 1
     9    4    8 ar
    10    4   21 1
    11    5    9 ar
    12    5   22 1
    13    6   10 ar
    14    6   23 1
    15    7   11 ar
    16    7   24 1
    17    8   15 ar
    18    8   25 1
    19    9   10 ar
    20    9   14 1
    21   10   17 1
    22   11   15 ar
    23   11   16 1
    24   12   13 1
    25   12   14 1
    26   12   26 1
    27   12   27 1
    28   13   17 1
    29   13   28 1
    30   13   29 1
    31   14   16 1
    32   14   30 1
    33   16   31 1
