@<TRIPOS>MOLECULE
*****
   31    31     0     0     0
SMALL
NO_CHARGES

@<TRIPOS>ATOM
      1 C1          2.1669   -2.7619   -0.7922 C.ar      1 <0>         0.0000
      2 C2          2.0008   -1.6450    0.0326 C.ar      1 <0>         0.0000
      3 C3          2.7647   -2.6001   -2.0426 C.ar      1 <0>         0.0000
      4 C4          3.0157   -0.3531   -1.7112 C.ar      1 <0>         0.0000
      5 C5          2.4356   -0.4000   -0.4318 C.ar      1 <0>         0.0000
      6 C6          3.8015    2.8395    0.4922 C.2       1 <0>         0.0000
      7 C7          1.5540    0.8913    1.6585 C.2       1 <0>         0.0000
      8 C8          5.1887    3.4190    0.7002 C.3       1 <0>         0.0000
      9 C9          0.2513    2.2962    3.1870 C.3       1 <0>         0.0000
     10 C10         4.6888    0.5810    1.1176 C.3       1 <0>         0.0000
     11 C11         2.3218    0.9121    0.3231 C.3       1 <0>         0.0000
     12 N1          3.1878   -1.4132   -2.5068 N.ar      1 <0>         0.0000
     13 N2          0.8628    2.0396    1.8891 N.am      1 <0>         0.0000
     14 N3          3.6581    1.4824    0.5979 N.am      1 <0>         0.0000
     15 O1          2.8383    3.5768    0.2311 O.2       1 <0>         0.0000
     16 O2          1.6109   -0.0436    2.4627 O.2       1 <0>         0.0000
     17 H1          1.8408   -3.7458   -0.4664 H         1 <0>         0.0000
     18 H2          1.5584   -1.7348    1.0173 H         1 <0>         0.0000
     19 H3          2.9106   -3.4534   -2.7032 H         1 <0>         0.0000
     20 H4          3.3624    0.6018   -2.1083 H         1 <0>         0.0000
     21 H5          5.9650    2.8415    0.1916 H         1 <0>         0.0000
     22 H6          5.1809    4.4403    0.3194 H         1 <0>         0.0000
     23 H7          5.4352    3.4514    1.7672 H         1 <0>         0.0000
     24 H8         -0.4562    3.1223    3.0884 H         1 <0>         0.0000
     25 H9          0.9997    2.5508    3.9476 H         1 <0>         0.0000
     26 H10        -0.2804    1.4028    3.5181 H         1 <0>         0.0000
     27 H11         5.3864    1.1243    1.7541 H         1 <0>         0.0000
     28 H12         5.2439    0.0922    0.3098 H         1 <0>         0.0000
     29 H13         4.2085   -0.1867    1.7276 H         1 <0>         0.0000
     30 H14         1.8328    1.6321   -0.3348 H         1 <0>         0.0000
     31 H15         1.0962    2.8311    1.2933 H         1 <0>         0.0000
@<TRIPOS>BOND
     1    1    2 ar
     2    1    3 ar
     3    1   17 1
     4    2    5 ar
     5    2   18 1
     6    3   12 ar
     7    3   19 1
     8    4    5 ar
     9    4   12 ar
    10    4   20 1
    11    5   11 1
    12    6    8 1
    13    6   14 am
    14    6   15 2
    15    7   11 1
    16    7   13 am
    17    7   16 2
    18    8   21 1
    19    8   22 1
    20    8   23 1
    21    9   13 1
    22    9   24 1
    23    9   25 1
    24    9   26 1
    25   10   14 1
    26   10   27 1
    27   10   28 1
    28   10   29 1
    29   11   14 1
    30   11   30 1
    31   13   31 1
