@<TRIPOS>MOLECULE
*****
   26    25     0     0     0
SMALL
NO_CHARGES

@<TRIPOS>ATOM
      1 C1         -1.6453    1.3772    1.4629 C.2       1 <0>         0.0000
      2 C2          0.3388    0.7301   -0.9061 C.2       1 <0>         0.0000
      3 C3         -1.9280    0.9662    2.9024 C.3       1 <0>         0.0000
      4 C4         -1.9640    1.4953   -1.6308 C.3       1 <0>         0.0000
      5 C5          2.5250   -0.0672   -0.0457 C.3       1 <0>         0.0000
      6 C6          0.6736   -2.5919   -0.6392 C.3       1 <0>         0.0000
      7 C7         -1.1774    0.4559   -0.8348 C.3       1 <0>         0.0000
      8 N1         -1.6145    0.3348    0.5638 N.am      1 <0>         0.0000
      9 N2          1.1666   -0.3171   -0.5107 N.am      1 <0>         0.0000
     10 O1         -1.4864    2.5534    1.1527 O.2       1 <0>         0.0000
     11 O2          0.8207    1.7750   -1.3182 O.2       1 <0>         0.0000
     12 O3          0.5498   -1.4031    0.1571 O.3       1 <0>         0.0000
     13 H1         -1.0883    1.2851    3.5262 H         1 <0>         0.0000
     14 H2         -2.8154    1.5027    3.2484 H         1 <0>         0.0000
     15 H3         -2.0872   -0.1075    3.0361 H         1 <0>         0.0000
     16 H4         -1.7512    2.5010   -1.2747 H         1 <0>         0.0000
     17 H5         -3.0344    1.2936   -1.5288 H         1 <0>         0.0000
     18 H6         -1.6902    1.4294   -2.6876 H         1 <0>         0.0000
     19 H7          2.5374    0.1140    1.0353 H         1 <0>         0.0000
     20 H8          2.8936    0.8139   -0.5698 H         1 <0>         0.0000
     21 H9          3.1624   -0.9239   -0.2799 H         1 <0>         0.0000
     22 H10         0.1986   -3.3840   -0.0559 H         1 <0>         0.0000
     23 H11         1.7259   -2.8424   -0.8103 H         1 <0>         0.0000
     24 H12         0.1634   -2.4720   -1.6012 H         1 <0>         0.0000
     25 H13        -1.3575   -0.5293   -1.2748 H         1 <0>         0.0000
     26 H14        -1.4851   -0.5863    0.9610 H         1 <0>         0.0000
@<TRIPOS>BOND
     1    1    3 1
     2    1    8 am
     3    1   10 2
     4    2    7 1
     5    2    9 am
     6    2   11 2
     7    3   13 1
     8    3   14 1
     9    3   15 1
    10    4    7 1
    11    4   16 1
    12    4   17 1
    13    4   18 1
    14    5    9 1
    15    5   19 1
    16    5   20 1
    17    5   21 1
    18    6   12 1
    19    6   22 1
    20    6   23 1
    21    6   24 1
    22    7    8 1
    23    7   25 1
    24    8   26 1
    25    9   12 1
