@<TRIPOS>MOLECULE
*****
   31    31     0     0     0
SMALL
NO_CHARGES

@<TRIPOS>ATOM
      1 C1          1.2133   -2.4553   -1.4503 C.ar      1 <0>         0.0000
      2 C2          1.4164   -1.6227   -0.3483 C.ar      1 <0>         0.0000
      3 C3          1.8878   -2.1719   -2.6396 C.ar      1 <0>         0.0000
      4 C4          2.9050   -0.3436   -1.7131 C.ar      1 <0>         0.0000
      5 C5          2.2917   -0.5401   -0.4677 C.ar      1 <0>         0.0000
      6 C6          4.9569    0.3513    0.6690 C.2       1 <0>         0.0000
      7 C7          2.0825   -0.0454    2.0665 C.2       1 <0>         0.0000
      8 C8          6.2931    1.0652    0.5576 C.3       1 <0>         0.0000
      9 C9          2.5207   -1.6462    3.8653 C.3       1 <0>         0.0000
     10 C10         3.7924    2.5664    0.7441 C.3       1 <0>         0.0000
     11 C11         2.4852    0.4631    0.6606 C.3       1 <0>         0.0000
     12 N1          2.7203   -1.1299   -2.7792 N.ar      1 <0>         0.0000
     13 N2          2.7631   -1.1179    2.5307 N.am      1 <0>         0.0000
     14 N3          3.8153    1.1058    0.6622 N.am      1 <0>         0.0000
     15 O1          4.9175   -0.8847    0.7448 O.2       1 <0>         0.0000
     16 O2          1.1798    0.5205    2.6899 O.2       1 <0>         0.0000
     17 H1          0.5446   -3.3093   -1.3896 H         1 <0>         0.0000
     18 H2          0.9035   -1.8195    0.5886 H         1 <0>         0.0000
     19 H3          1.7539   -2.8023   -3.5173 H         1 <0>         0.0000
     20 H4          3.5900    0.4909   -1.8551 H         1 <0>         0.0000
     21 H5          6.5216    1.6247    1.4707 H         1 <0>         0.0000
     22 H6          7.0571    0.3006    0.4191 H         1 <0>         0.0000
     23 H7          6.3222    1.7623   -0.2848 H         1 <0>         0.0000
     24 H8          2.8901   -0.9668    4.6424 H         1 <0>         0.0000
     25 H9          3.0295   -2.6077    3.9592 H         1 <0>         0.0000
     26 H10         1.4486   -1.7869    4.0233 H         1 <0>         0.0000
     27 H11         3.3679    2.9981   -0.1701 H         1 <0>         0.0000
     28 H12         4.7941    2.9659    0.8831 H         1 <0>         0.0000
     29 H13         3.1794    2.8801    1.5950 H         1 <0>         0.0000
     30 H14         1.7761    1.2759    0.4875 H         1 <0>         0.0000
     31 H15         3.5594   -1.4352    1.9788 H         1 <0>         0.0000
@<TRIPOS>BOND
     1    1    2 ar
     2    1    3 ar
     3    1   17 1
     4    2    5 ar
     5    2   18 1
     6    3   12 ar
     7    3   19 1
     8    4    5 ar
     9    4   12 ar
    10    4   20 1
    11    5   11 1
    12    6    8 1
    13    6   14 am
    14    6   15 2
    15    7   11 1
    16    7   13 am
    17    7   16 2
    18    8   21 1
    19    8   22 1
    20    8   23 1
    21    9   13 1
    22    9   24 1
    23    9   25 1
    24    9   26 1
    25   10   14 1
    26   10   27 1
    27   10   28 1
    28   10   29 1
    29   11   14 1
    30   11   30 1
    31   13   31 1
