@<TRIPOS>MOLECULE
*****
   31    33     0     0     0
SMALL
NO_CHARGES

@<TRIPOS>ATOM
      1 C1          2.2839   -0.9815    0.2567 C.ar      1 <0>         0.0000
      2 C2          0.8908   -1.0437    0.3891 C.ar      1 <0>         0.0000
      3 C3          5.5136   -4.6135   -2.8977 C.ar      1 <0>         0.0000
      4 C4          4.2611   -4.8222   -3.4954 C.ar      1 <0>         0.0000
      5 C5          3.0535   -2.0865    0.6190 C.ar      1 <0>         0.0000
      6 C6          0.2885   -2.1965    0.8882 C.ar      1 <0>         0.0000
      7 C7          5.6073   -4.5560   -1.5145 C.ar      1 <0>         0.0000
      8 C8          3.1625   -4.9672   -2.6512 C.ar      1 <0>         0.0000
      9 C9          2.4718   -3.2598    1.1144 C.ar      1 <0>         0.0000
     10 C10         1.0739   -3.2982    1.2540 C.ar      1 <0>         0.0000
     11 C11         4.4273   -4.7112   -0.7489 C.ar      1 <0>         0.0000
     12 C12         2.4455   -5.7239    1.5956 C.3       1 <0>         0.0000
     13 C13         1.1887   -5.3910    2.3844 C.3       1 <0>         0.0000
     14 C14         3.3227   -4.4693    1.4932 C.3       1 <0>         0.0000
     15 N1          3.2283   -4.9164   -1.3128 N.ar      1 <0>         0.0000
     16 N2          4.4940   -4.6763    0.6361 N.pl3     1 <0>         0.0000
     17 O1          0.3938   -4.3931    1.7270 O.3       1 <0>         0.0000
     18 H1          2.7614   -0.0865   -0.1323 H         1 <0>         0.0000
     19 H2          0.2743   -0.1942    0.1064 H         1 <0>         0.0000
     20 H3          6.4057   -4.4941   -3.5076 H         1 <0>         0.0000
     21 H4          4.1431   -4.8700   -4.5733 H         1 <0>         0.0000
     22 H5          4.1326   -2.0507    0.4894 H         1 <0>         0.0000
     23 H6         -0.7893   -2.2690    1.0032 H         1 <0>         0.0000
     24 H7          6.5643   -4.3942   -1.0236 H         1 <0>         0.0000
     25 H8          2.1680   -5.1310   -3.0646 H         1 <0>         0.0000
     26 H9          2.9998   -6.5265    2.0932 H         1 <0>         0.0000
     27 H10         2.1728   -6.0583    0.5936 H         1 <0>         0.0000
     28 H11         0.5352   -6.2602    2.4842 H         1 <0>         0.0000
     29 H12         1.4401   -5.0302    3.3930 H         1 <0>         0.0000
     30 H13         3.7431   -4.2836    2.4897 H         1 <0>         0.0000
     31 H14         5.3602   -4.3036    0.9993 H         1 <0>         0.0000
@<TRIPOS>BOND
     1    1    2 ar
     2    1    5 ar
     3    1   18 1
     4    2    6 ar
     5    2   19 1
     6    3    4 ar
     7    3    7 ar
     8    3   20 1
     9    4    8 ar
    10    4   21 1
    11    5    9 ar
    12    5   22 1
    13    6   10 ar
    14    6   23 1
    15    7   11 ar
    16    7   24 1
    17    8   15 ar
    18    8   25 1
    19    9   10 ar
    20    9   14 1
    21   10   17 1
    22   11   15 ar
    23   11   16 1
    24   12   13 1
    25   12   14 1
    26   12   26 1
    27   12   27 1
    28   13   17 1
    29   13   28 1
    30   13   29 1
    31   14   16 1
    32   14   30 1
    33   16   31 1
