@<TRIPOS>MOLECULE
*****
   31    31     0     0     0
SMALL
NO_CHARGES

@<TRIPOS>ATOM
      1 C1          2.7232   -0.8809   -2.2811 C.ar      1 <0>         0.0000
      2 C2          2.8949   -0.1195   -1.1278 C.ar      1 <0>         0.0000
      3 C3          1.9251   -2.0277   -2.2069 C.ar      1 <0>         0.0000
      4 C4          1.5001   -1.6904    0.0239 C.ar      1 <0>         0.0000
      5 C5          2.2773   -0.5243    0.0635 C.ar      1 <0>         0.0000
      6 C6          4.0044    2.0606    1.9829 C.2       1 <0>         0.0000
      7 C7          1.9138   -0.2441    2.6199 C.2       1 <0>         0.0000
      8 C8          5.4349    2.4825    2.2609 C.3       1 <0>         0.0000
      9 C9          0.9697    0.3509    4.8066 C.3       1 <0>         0.0000
     10 C10         4.8401   -0.2502    1.6081 C.3       1 <0>         0.0000
     11 C11         2.4131    0.3567    1.2907 C.3       1 <0>         0.0000
     12 N1          1.3202   -2.4291   -1.0833 N.ar      1 <0>         0.0000
     13 N2          1.3177    0.6750    3.4290 N.am      1 <0>         0.0000
     14 N3          3.8097    0.7882    1.5012 N.am      1 <0>         0.0000
     15 O1          3.0610    2.8399    2.1746 O.2       1 <0>         0.0000
     16 O2          2.0969   -1.4203    2.9366 O.2       1 <0>         0.0000
     17 H1          3.1895   -0.5949   -3.2198 H         1 <0>         0.0000
     18 H2          3.5051    0.7807   -1.1425 H         1 <0>         0.0000
     19 H3          1.7658   -2.6481   -3.0880 H         1 <0>         0.0000
     20 H4          1.0122   -2.0545    0.9219 H         1 <0>         0.0000
     21 H5          6.0676    2.3714    1.3750 H         1 <0>         0.0000
     22 H6          5.4232    3.5277    2.5684 H         1 <0>         0.0000
     23 H7          5.8763    1.8784    3.0601 H         1 <0>         0.0000
     24 H8          0.2390    1.0768    5.1700 H         1 <0>         0.0000
     25 H9          1.8480    0.3639    5.4640 H         1 <0>         0.0000
     26 H10         0.5337   -0.6485    4.8393 H         1 <0>         0.0000
     27 H11         5.0047   -0.5535    2.6480 H         1 <0>         0.0000
     28 H12         5.7815    0.0951    1.1765 H         1 <0>         0.0000
     29 H13         4.5121   -1.1276    1.0525 H         1 <0>         0.0000
     30 H14         1.8576    1.2765    1.1008 H         1 <0>         0.0000
     31 H15         1.4417    1.6511    3.1738 H         1 <0>         0.0000
@<TRIPOS>BOND
     1    1    2 ar
     2    1    3 ar
     3    1   17 1
     4    2    5 ar
     5    2   18 1
     6    3   12 ar
     7    3   19 1
     8    4    5 ar
     9    4   12 ar
    10    4   20 1
    11    5   11 1
    12    6    8 1
    13    6   14 am
    14    6   15 2
    15    7   11 1
    16    7   13 am
    17    7   16 2
    18    8   21 1
    19    8   22 1
    20    8   23 1
    21    9   13 1
    22    9   24 1
    23    9   25 1
    24    9   26 1
    25   10   14 1
    26   10   27 1
    27   10   28 1
    28   10   29 1
    29   11   14 1
    30   11   30 1
    31   13   31 1
