@<TRIPOS>MOLECULE
*****
   31    33     0     0     0
SMALL
NO_CHARGES

@<TRIPOS>ATOM
      1 C1          1.5736   -1.0748    0.1967 C.ar      1 <0>         0.0000
      2 C2          0.2144   -1.0681    0.5351 C.ar      1 <0>         0.0000
      3 C3          6.8392   -3.2198    1.3080 C.ar      1 <0>         0.0000
      4 C4          7.4988   -3.3752    0.0823 C.ar      1 <0>         0.0000
      5 C5          2.3462   -2.2006    0.4820 C.ar      1 <0>         0.0000
      6 C6         -0.3559   -2.1781    1.1539 C.ar      1 <0>         0.0000
      7 C7          5.5384   -3.6876    1.4576 C.ar      1 <0>         0.0000
      8 C8          6.7945   -3.9998   -0.9483 C.ar      1 <0>         0.0000
      9 C9          1.7972   -3.3290    1.1087 C.ar      1 <0>         0.0000
     10 C10         0.4300   -3.3021    1.4431 C.ar      1 <0>         0.0000
     11 C11         4.9184   -4.3175    0.3537 C.ar      1 <0>         0.0000
     12 C12         1.7170   -5.7773    1.5935 C.3       1 <0>         0.0000
     13 C13         0.5941   -5.4105    2.5512 C.3       1 <0>         0.0000
     14 C14         2.6404   -4.5690    1.4068 C.3       1 <0>         0.0000
     15 N1          5.5428   -4.4581   -0.8325 N.ar      1 <0>         0.0000
     16 N2          3.6484   -4.8628    0.4015 N.pl3     1 <0>         0.0000
     17 O1         -0.2272   -4.3549    2.0332 O.3       1 <0>         0.0000
     18 H1          2.0247   -0.2142   -0.2890 H         1 <0>         0.0000
     19 H2         -0.4016   -0.1998    0.3159 H         1 <0>         0.0000
     20 H3          7.3334   -2.7305    2.1438 H         1 <0>         0.0000
     21 H4          8.5127   -3.0202   -0.0722 H         1 <0>         0.0000
     22 H5          3.3956   -2.2105    0.2043 H         1 <0>         0.0000
     23 H6         -1.4084   -2.2002    1.4216 H         1 <0>         0.0000
     24 H7          5.0167   -3.5577    2.3992 H         1 <0>         0.0000
     25 H8          7.2561   -4.1379   -1.9255 H         1 <0>         0.0000
     26 H9          2.2863   -6.6271    1.9821 H         1 <0>         0.0000
     27 H10         1.2872   -6.0733    0.6290 H         1 <0>         0.0000
     28 H11        -0.0846   -6.2492    2.7189 H         1 <0>         0.0000
     29 H12         1.0027   -5.0967    3.5226 H         1 <0>         0.0000
     30 H13         3.1654   -4.4180    2.3549 H         1 <0>         0.0000
     31 H14         3.2988   -5.0917   -0.5235 H         1 <0>         0.0000
@<TRIPOS>BOND
     1    1    2 ar
     2    1    5 ar
     3    1   18 1
     4    2    6 ar
     5    2   19 1
     6    3    4 ar
     7    3    7 ar
     8    3   20 1
     9    4    8 ar
    10    4   21 1
    11    5    9 ar
    12    5   22 1
    13    6   10 ar
    14    6   23 1
    15    7   11 ar
    16    7   24 1
    17    8   15 ar
    18    8   25 1
    19    9   10 ar
    20    9   14 1
    21   10   17 1
    22   11   15 ar
    23   11   16 1
    24   12   13 1
    25   12   14 1
    26   12   26 1
    27   12   27 1
    28   13   17 1
    29   13   28 1
    30   13   29 1
    31   14   16 1
    32   14   30 1
    33   16   31 1
