@<TRIPOS>MOLECULE
*****
   26    25     0     0     0
SMALL
NO_CHARGES

@<TRIPOS>ATOM
      1 C1         -1.6735   -0.8228    1.8273 C.2       1 <0>         0.0000
      2 C2          0.5586    1.0465   -0.3580 C.2       1 <0>         0.0000
      3 C3         -1.9439   -0.7937    3.3232 C.3       1 <0>         0.0000
      4 C4         -1.9550    1.2099   -0.8608 C.3       1 <0>         0.0000
      5 C5          2.2404    2.7258    0.3225 C.3       1 <0>         0.0000
      6 C6         -0.5028    4.1345    0.7123 C.3       1 <0>         0.0000
      7 C7         -0.8400    0.4639   -0.1129 C.3       1 <0>         0.0000
      8 N1         -1.1151    0.3178    1.3121 N.am      1 <0>         0.0000
      9 N2          0.8533    2.3192    0.1206 N.am      1 <0>         0.0000
     10 O1         -1.9343   -1.8100    1.1416 O.2       1 <0>         0.0000
     11 O2          1.3952    0.4354   -1.0135 O.2       1 <0>         0.0000
     12 O3         -0.0223    2.8387    1.1052 O.3       1 <0>         0.0000
     13 H1         -3.0062   -0.9895    3.4921 H         1 <0>         0.0000
     14 H2         -1.3821   -1.6051    3.7937 H         1 <0>         0.0000
     15 H3         -1.6715    0.1515    3.8017 H         1 <0>         0.0000
     16 H4         -2.1430    2.1960   -0.4305 H         1 <0>         0.0000
     17 H5         -2.8760    0.6242   -0.7941 H         1 <0>         0.0000
     18 H6         -1.6974    1.3299   -1.9181 H         1 <0>         0.0000
     19 H7          2.3377    3.8052    0.1827 H         1 <0>         0.0000
     20 H8          2.8446    2.2095   -0.4220 H         1 <0>         0.0000
     21 H9          2.5791    2.4530    1.3286 H         1 <0>         0.0000
     22 H10        -1.2507    4.4042    1.4609 H         1 <0>         0.0000
     23 H11        -0.9557    4.0959   -0.2823 H         1 <0>         0.0000
     24 H12         0.3064    4.8725    0.7242 H         1 <0>         0.0000
     25 H13        -0.7751   -0.5488   -0.5099 H         1 <0>         0.0000
     26 H14        -1.0151    1.1397    1.8923 H         1 <0>         0.0000
@<TRIPOS>BOND
     1    1    3 1
     2    1    8 am
     3    1   10 2
     4    2    7 1
     5    2    9 am
     6    2   11 2
     7    3   13 1
     8    3   14 1
     9    3   15 1
    10    4    7 1
    11    4   16 1
    12    4   17 1
    13    4   18 1
    14    5    9 1
    15    5   19 1
    16    5   20 1
    17    5   21 1
    18    6   12 1
    19    6   22 1
    20    6   23 1
    21    6   24 1
    22    7    8 1
    23    7   25 1
    24    8   26 1
    25    9   12 1
