@<TRIPOS>MOLECULE
*****
   39    41     0     0     0
SMALL
NO_CHARGES

@<TRIPOS>ATOM
      1 C1          1.4364    2.3444    1.2841 C.ar      1 <0>         0.0000
      2 C2          0.8814    1.6441    2.3643 C.ar      1 <0>         0.0000
      3 C3          1.2735    1.8479   -0.0066 C.ar      1 <0>         0.0000
      4 C4          0.1495    0.4819    2.1426 C.ar      1 <0>         0.0000
      5 C5          0.5678    0.6572   -0.2512 C.ar      1 <0>         0.0000
      6 C6         -0.0195   -0.0055    0.8395 C.ar      1 <0>         0.0000
      7 C7          3.5667    0.6072   -5.1198 C.3       1 <0>         0.0000
      8 C8          3.1003   -0.6016   -5.9059 C.3       1 <0>         0.0000
      9 C9         -0.2445   -1.2921   -1.6421 C.3       1 <0>         0.0000
     10 C10         0.4305    0.0932   -1.6580 C.3       1 <0>         0.0000
     11 C11         3.0743   -0.6179   -4.4019 C.3       1 <0>         0.0000
     12 C12        -1.3627   -1.3900   -0.5917 C.3       1 <0>         0.0000
     13 C13        -2.4930   -0.3845   -0.8439 C.3       1 <0>         0.0000
     14 C14        -1.9027   -2.8147   -0.5129 C.3       1 <0>         0.0000
     15 C15         1.8247    0.0056   -2.2893 C.3       1 <0>         0.0000
     16 N1          1.7592   -0.5496   -3.7051 N.4       1 <0>         0.0000
     17 O1         -0.7703   -1.1432    0.7070 O.3       1 <0>         0.0000
     18 H1          1.9821    3.2683    1.4489 H         1 <0>         0.0000
     19 H2          1.0031    2.0172    3.3771 H         1 <0>         0.0000
     20 H3          1.6924    2.4106   -0.8387 H         1 <0>         0.0000
     21 H4         -0.3144   -0.0611    2.9605 H         1 <0>         0.0000
     22 H5          4.6279    0.8227   -5.0585 H         1 <0>         0.0000
     23 H6          2.9311    1.4892   -5.1323 H         1 <0>         0.0000
     24 H7          2.1578   -0.5203   -6.4412 H         1 <0>         0.0000
     25 H8          3.8356   -1.2344   -6.3912 H         1 <0>         0.0000
     26 H9         -0.6711   -1.5402   -2.6223 H         1 <0>         0.0000
     27 H10         0.4980   -2.0618   -1.3914 H         1 <0>         0.0000
     28 H11        -0.1758    0.7856   -2.2614 H         1 <0>         0.0000
     29 H12         3.7694   -1.2420   -3.8508 H         1 <0>         0.0000
     30 H13        -3.2619   -0.4969   -0.0757 H         1 <0>         0.0000
     31 H14        -2.9559   -0.5654   -1.8195 H         1 <0>         0.0000
     32 H15        -2.1408    0.6498   -0.8134 H         1 <0>         0.0000
     33 H16        -2.6373   -2.8899    0.2926 H         1 <0>         0.0000
     34 H17        -1.0970   -3.5248   -0.3060 H         1 <0>         0.0000
     35 H18        -2.3911   -3.0951   -1.4509 H         1 <0>         0.0000
     36 H19         2.4722   -0.6665   -1.7221 H         1 <0>         0.0000
     37 H20         2.3163    0.9738   -2.3761 H         1 <0>         0.0000
     38 H21         1.1112    0.0283   -4.2534 H         1 <0>         0.0000
     39 H22         1.3385   -1.4864   -3.6762 H         1 <0>         0.0000
@<TRIPOS>BOND
     1    1    2 ar
     2    1    3 ar
     3    1   18 1
     4    2    4 ar
     5    2   19 1
     6    3    5 ar
     7    3   20 1
     8    4    6 ar
     9    4   21 1
    10    5    6 ar
    11    5   10 1
    12    6   17 1
    13    7    8 1
    14    7   11 1
    15    7   22 1
    16    7   23 1
    17    8   11 1
    18    8   24 1
    19    8   25 1
    20    9   10 1
    21    9   12 1
    22    9   26 1
    23    9   27 1
    24   10   15 1
    25   10   28 1
    26   11   16 1
    27   11   29 1
    28   12   13 1
    29   12   14 1
    30   12   17 1
    31   13   30 1
    32   13   31 1
    33   13   32 1
    34   14   33 1
    35   14   34 1
    36   14   35 1
    37   15   16 1
    38   15   36 1
    39   15   37 1
    40   16   38 1
    41   16   39 1
