@<TRIPOS>MOLECULE
*****
   28    30     0     0     0
SMALL
NO_CHARGES

@<TRIPOS>ATOM
      1 C1         -1.2779    0.7983   -1.4703 C.ar      1 <0>         0.0000
      2 C2         -0.9169   -0.1270   -0.4780 C.ar      1 <0>         0.0000
      3 C3         -2.2877    0.4914   -2.3893 C.ar      1 <0>         0.0000
      4 C4         -1.5383   -1.3777   -0.3779 C.ar      1 <0>         0.0000
      5 C5         -2.9113   -0.7536   -2.2992 C.ar      1 <0>         0.0000
      6 C6         -2.5327   -1.6645   -1.3070 C.ar      1 <0>         0.0000
      7 C7         -5.9615    0.2806   -3.0305 C.cat     1 <0>         0.0000
      8 C8         -6.4327    2.0434   -4.5595 C.3       1 <0>         0.0000
      9 C9         -3.9402   -2.8443   -2.6198 C.3       1 <0>         0.0000
     10 C10        -7.3061    2.4272   -3.3626 C.3       1 <0>         0.0000
     11 C11        -4.0756   -1.3660   -3.0431 C.3       1 <0>         0.0000
     12 N1         -5.5046    1.0199   -4.0462 N.pl3     1 <0>         0.0000
     13 N2         -5.3766   -0.8119   -2.5663 N.pl3     1 <0>         0.0000
     14 O1         -3.2556   -2.8346   -1.3501 O.3       1 <0>         0.0000
     15 S1         -7.4679    0.8773   -2.3697 S.3       1 <0>         0.0000
     16 H1         -0.7651    1.7531   -1.5280 H         1 <0>         0.0000
     17 H2         -0.1290    0.1275    0.2250 H         1 <0>         0.0000
     18 H3         -2.5604    1.2133   -3.1558 H         1 <0>         0.0000
     19 H4         -1.2555   -2.1000    0.3810 H         1 <0>         0.0000
     20 H5         -7.0293    1.6244   -5.3762 H         1 <0>         0.0000
     21 H6         -5.8660    2.9000   -4.9289 H         1 <0>         0.0000
     22 H7         -4.8919   -3.3647   -2.4994 H         1 <0>         0.0000
     23 H8         -3.3220   -3.3748   -3.3508 H         1 <0>         0.0000
     24 H9         -6.8399    3.1893   -2.7363 H         1 <0>         0.0000
     25 H10        -8.3013    2.7513   -3.6658 H         1 <0>         0.0000
     26 H11        -4.0527   -1.2703   -4.1312 H         1 <0>         0.0000
     27 H12        -4.6705    0.7624   -4.5617 H         1 <0>         0.0000
     28 H13        -5.7118   -1.1695   -1.6756 H         1 <0>         0.0000
@<TRIPOS>BOND
     1    1    2 ar
     2    1    3 ar
     3    1   16 1
     4    2    4 ar
     5    2   17 1
     6    3    5 ar
     7    3   18 1
     8    4    6 ar
     9    4   19 1
    10    5    6 ar
    11    5   11 1
    12    6   14 1
    13    7   12 2
    14    7   13 1
    15    7   15 1
    16    8   10 1
    17    8   12 1
    18    8   20 1
    19    8   21 1
    20    9   11 1
    21    9   14 1
    22    9   22 1
    23    9   23 1
    24   10   15 1
    25   10   24 1
    26   10   25 1
    27   11   13 1
    28   11   26 1
    29   12   27 1
    30   13   28 1
