@<TRIPOS>MOLECULE
*****
   29    30     0     0     0
SMALL
NO_CHARGES

@<TRIPOS>ATOM
      1 C1         -3.1615    0.5149   -5.1785 C.ar      1 <0>         0.0000
      2 C2         -1.9540    2.9114   -5.1162 C.ar      1 <0>         0.0000
      3 C3         -2.3692    0.9077   -4.0953 C.ar      1 <0>         0.0000
      4 C4         -2.7546    2.4959   -6.1948 C.ar      1 <0>         0.0000
      5 C5         -2.1786   -0.0265   -2.9273 C.2       1 <0>         0.0000
      6 C6          0.4245   -0.3567   -0.3199 C.3       1 <0>         0.0000
      7 C7         -1.2812    0.4589    0.6244 C.3       1 <0>         0.0000
      8 C8         -1.0636   -0.2437   -0.7401 C.3       1 <0>         0.0000
      9 C9          0.8699    0.6712    1.9198 C.3       1 <0>         0.0000
     10 C10         0.3759    0.6888    3.3563 C.3       1 <0>         0.0000
     11 N1         -1.7677    2.1096   -4.0713 N.ar      1 <0>         0.0000
     12 N2         -3.3532    1.3180   -6.2346 N.ar      1 <0>         0.0000
     13 N3          0.0024   -0.1276    1.0805 N.3       1 <0>         0.0000
     14 N4         -1.3841    0.4763   -1.9426 N.am      1 <0>         0.0000
     15 O1         -2.7125   -1.1355   -2.9083 O.2       1 <0>         0.0000
     16 F1          1.1138    1.6037    4.0779 F         1 <0>         0.0000
     17 F2          0.5505   -0.5353    3.9480 F         1 <0>         0.0000
     18 Cl1        -2.9760    3.5765   -7.5499 Cl        1 <0>         0.0000
     19 H1         -3.6414   -0.4588   -5.1843 H         1 <0>         0.0000
     20 H2         -1.4742    3.8864   -5.1114 H         1 <0>         0.0000
     21 H3          0.9443   -1.3026   -0.5004 H         1 <0>         0.0000
     22 H4          1.0194    0.4753   -0.7345 H         1 <0>         0.0000
     23 H5         -1.2405    1.5578    0.5225 H         1 <0>         0.0000
     24 H6         -2.1623    0.1794    1.2101 H         1 <0>         0.0000
     25 H7         -1.5557   -1.2134   -0.7898 H         1 <0>         0.0000
     26 H8          0.9513    1.7205    1.5795 H         1 <0>         0.0000
     27 H9          1.8752    0.2375    1.9196 H         1 <0>         0.0000
     28 H10        -0.6797    0.9589    3.4599 H         1 <0>         0.0000
     29 H11        -1.0111    1.4078   -2.0956 H         1 <0>         0.0000
@<TRIPOS>BOND
     1    1    3 ar
     2    1   12 ar
     3    1   19 1
     4    2    4 ar
     5    2   11 ar
     6    2   20 1
     7    3    5 1
     8    3   11 ar
     9    4   12 ar
    10    4   18 1
    11    5   14 am
    12    5   15 2
    13    6    8 1
    14    6   13 1
    15    6   21 1
    16    6   22 1
    17    7    8 1
    18    7   13 1
    19    7   23 1
    20    7   24 1
    21    8   14 1
    22    8   25 1
    23    9   10 1
    24    9   13 1
    25    9   26 1
    26    9   27 1
    27   10   16 1
    28   10   17 1
    29   10   28 1
    30   14   29 1
