@<TRIPOS>MOLECULE
*****
   23    23     0     0     0
SMALL
NO_CHARGES

@<TRIPOS>ATOM
      1 C1          2.0033   -0.7468   -0.4129 C.ar      1 <0>         0.0000
      2 C2          0.9873   -0.1516    0.3326 C.ar      1 <0>         0.0000
      3 C3          3.1606   -1.2617    1.6538 C.ar      1 <0>         0.0000
      4 C4          3.0940   -1.3126    0.2615 C.ar      1 <0>         0.0000
      5 C5          1.0528   -0.1041    1.7306 C.ar      1 <0>         0.0000
      6 C6          2.1563   -0.6476    2.4225 C.ar      1 <0>         0.0000
      7 C7          1.4604   -1.9164    4.5031 C.2       1 <0>         0.0000
      8 C8          2.2561   -0.6635    3.9174 C.3       1 <0>         0.0000
      9 C9          4.2105   -1.9605   -0.4932 C.3       1 <0>         0.0000
     10 C10        -0.0693    0.5245    2.5175 C.3       1 <0>         0.0000
     11 O1          2.1707   -2.9107    4.7770 O.co2     1 <0>         0.0000
     12 O2          0.2134   -1.7447    4.5959 O.co2     1 <0>         0.0000
     13 F1          5.0186   -1.0166   -1.1208 F         1 <0>         0.0000
     14 F2          3.7429   -2.7740   -1.5106 F         1 <0>         0.0000
     15 F3         -1.2144    0.6368    1.7442 F         1 <0>         0.0000
     16 F4          0.2678    1.8354    2.8693 F         1 <0>         0.0000
     17 H1          1.9452   -0.7915   -1.4966 H         1 <0>         0.0000
     18 H2          0.1205    0.2671   -0.1689 H         1 <0>         0.0000
     19 H3          3.9974   -1.7205    2.1760 H         1 <0>         0.0000
     20 H4          3.3035   -0.7513    4.2145 H         1 <0>         0.0000
     21 H5          1.8441    0.2519    4.3488 H         1 <0>         0.0000
     22 H6          4.8634   -2.5677    0.1393 H         1 <0>         0.0000
     23 H7         -0.3108   -0.0329    3.4260 H         1 <0>         0.0000
@<TRIPOS>BOND
     1    1    2 ar
     2    1    4 ar
     3    1   17 1
     4    2    5 ar
     5    2   18 1
     6    3    4 ar
     7    3    6 ar
     8    3   19 1
     9    4    9 1
    10    5    6 ar
    11    5   10 1
    12    6    8 1
    13    7    8 1
    14    7   11 1
    15    7   12 2
    16    8   20 1
    17    8   21 1
    18    9   13 1
    19    9   14 1
    20    9   22 1
    21   10   15 1
    22   10   16 1
    23   10   23 1
