@<TRIPOS>MOLECULE
*****
   29    30     0     0     0
SMALL
NO_CHARGES

@<TRIPOS>ATOM
      1 C1          5.3790    2.4317    0.1884 C.ar      1 <0>         0.0000
      2 C2          4.0693    4.4096    1.4446 C.ar      1 <0>         0.0000
      3 C3          4.0054    2.3568    0.4387 C.ar      1 <0>         0.0000
      4 C4          5.4496    4.4642    1.1818 C.ar      1 <0>         0.0000
      5 C5          3.2271    1.1428   -0.0014 C.2       1 <0>         0.0000
      6 C6          0.1588   -0.5089    1.1106 C.3       1 <0>         0.0000
      7 C7         -0.4024    0.5606   -0.6273 C.3       1 <0>         0.0000
      8 C8          0.9691    0.1557   -0.0341 C.3       1 <0>         0.0000
      9 C9         -2.3052   -0.2103    0.8436 C.3       1 <0>         0.0000
     10 C10        -3.4577   -0.3997   -0.1303 C.3       1 <0>         0.0000
     11 N1          3.3564    3.3513    1.0688 N.ar      1 <0>         0.0000
     12 N2          6.1032    3.4953    0.5644 N.ar      1 <0>         0.0000
     13 N3         -1.0296   -0.4802    0.2257 N.3       1 <0>         0.0000
     14 N4          1.8995    1.2016    0.2945 N.am      1 <0>         0.0000
     15 O1          3.7826    0.2064   -0.5759 O.2       1 <0>         0.0000
     16 F1         -4.6359   -0.0960    0.4739 F         1 <0>         0.0000
     17 F2         -3.3410    0.4158   -1.2113 F         1 <0>         0.0000
     18 F3         -3.5505   -1.6643   -0.5882 F         1 <0>         0.0000
     19 Cl1         6.3525    5.8711    1.6899 Cl        1 <0>         0.0000
     20 H1          5.8903    1.6207   -0.3209 H         1 <0>         0.0000
     21 H2          3.5586    5.2218    1.9548 H         1 <0>         0.0000
     22 H3          0.4608   -1.5047    1.4491 H         1 <0>         0.0000
     23 H4          0.0707    0.1659    1.9787 H         1 <0>         0.0000
     24 H5         -0.6880    1.5845   -0.3322 H         1 <0>         0.0000
     25 H6         -0.5587    0.4381   -1.7016 H         1 <0>         0.0000
     26 H7          1.4917   -0.5774   -0.6462 H         1 <0>         0.0000
     27 H8         -2.4655   -0.9155    1.6644 H         1 <0>         0.0000
     28 H9         -2.3932    0.8129    1.2515 H         1 <0>         0.0000
     29 H10         1.5822    2.0343    0.7803 H         1 <0>         0.0000
@<TRIPOS>BOND
     1    1    3 ar
     2    1   12 ar
     3    1   20 1
     4    2    4 ar
     5    2   11 ar
     6    2   21 1
     7    3    5 1
     8    3   11 ar
     9    4   12 ar
    10    4   19 1
    11    5   14 am
    12    5   15 2
    13    6    8 1
    14    6   13 1
    15    6   22 1
    16    6   23 1
    17    7    8 1
    18    7   13 1
    19    7   24 1
    20    7   25 1
    21    8   14 1
    22    8   26 1
    23    9   10 1
    24    9   13 1
    25    9   27 1
    26    9   28 1
    27   10   16 1
    28   10   17 1
    29   10   18 1
    30   14   29 1
