@<TRIPOS>MOLECULE
*****
   54    57     0     0     0
SMALL
NO_CHARGES

@<TRIPOS>ATOM
      1 C1         -2.9747   -0.9563   -1.2663 C.2       1 <0>         0.0000
      2 C2         -1.9552    0.0143   -1.0325 C.2       1 <0>         0.0000
      3 C3         -0.9006   -0.5079   -0.3150 C.2       1 <0>         0.0000
      4 C4         -4.2205   -0.7876   -1.9742 C.2       1 <0>         0.0000
      5 C5         -2.6523   -2.1699   -0.7178 C.2       1 <0>         0.0000
      6 C6         -4.6781   -3.2366   -1.4491 C.2       1 <0>         0.0000
      7 C7          1.2868    0.0436    2.4858 C.2       1 <0>         0.0000
      8 C8         -7.1109   -1.5999   -0.3180 C.3       1 <0>         0.0000
      9 C9         -7.7112   -0.4724   -1.1083 C.3       1 <0>         0.0000
     10 C10        -0.3207    1.3448    3.6169 C.3       1 <0>         0.0000
     11 C11        -0.6444    1.3563    2.1305 C.3       1 <0>         0.0000
     12 C12        -7.4170   -1.7908   -1.7852 C.3       1 <0>         0.0000
     13 C13        -2.0047    1.4235   -1.4976 C.3       1 <0>         0.0000
     14 C14        -8.5806   -2.6691   -2.1544 C.3       1 <0>         0.0000
     15 C15        -4.7814   -4.1318    3.0457 C.3       1 <0>         0.0000
     16 C16         0.3438    0.1580    0.1309 C.3       1 <0>         0.0000
     17 C17        -6.2706   -1.8476   -2.7366 C.3       1 <0>         0.0000
     18 C18        -2.9944   -4.5651   -0.1463 C.3       1 <0>         0.0000
     19 C19        -3.1840   -4.4776    1.3570 C.3       1 <0>         0.0000
     20 N1         -5.0011   -1.9672   -2.0254 N.am      1 <0>         0.0000
     21 N2         -3.4360   -3.3180   -0.7700 N.am      1 <0>         0.0000
     22 N3          0.9077    0.5987    3.7189 N.am      1 <0>         0.0000
     23 N4          0.3370    0.4680    1.5425 N.am      1 <0>         0.0000
     24 O1         -4.5488    0.2861   -2.4728 O.2       1 <0>         0.0000
     25 O2         -5.4396   -4.2070   -1.5375 O.2       1 <0>         0.0000
     26 O3          2.2624   -0.6692    2.2907 O.2       1 <0>         0.0000
     27 O4         -4.5537   -4.2286    1.6465 O.3       1 <0>         0.0000
     28 S1         -1.1477   -2.1575    0.0701 S.3       1 <0>         0.0000
     29 H1         -6.0759   -1.5039   -0.0117 H         1 <0>         0.0000
     30 H2         -7.7410   -2.0935    0.4123 H         1 <0>         0.0000
     31 H3         -8.7435   -0.2112   -0.9072 H         1 <0>         0.0000
     32 H4         -7.0784    0.3784   -1.3313 H         1 <0>         0.0000
     33 H5         -0.1633    2.3485    4.0207 H         1 <0>         0.0000
     34 H6         -1.0854    0.8256    4.2016 H         1 <0>         0.0000
     35 H7         -1.6500    0.9785    1.9241 H         1 <0>         0.0000
     36 H8         -0.5206    2.3525    1.6946 H         1 <0>         0.0000
     37 H9         -2.4791    2.0656   -0.7420 H         1 <0>         0.0000
     38 H10        -0.9982    1.8189   -1.7000 H         1 <0>         0.0000
     39 H11        -2.5725    1.5208   -2.4351 H         1 <0>         0.0000
     40 H12        -8.2377   -3.5927   -2.6367 H         1 <0>         0.0000
     41 H13        -9.2551   -2.1551   -2.8500 H         1 <0>         0.0000
     42 H14        -9.1599   -2.9473   -1.2653 H         1 <0>         0.0000
     43 H15        -5.8412   -3.9407    3.2309 H         1 <0>         0.0000
     44 H16        -4.1763   -3.3209    3.4590 H         1 <0>         0.0000
     45 H17        -4.4955   -5.0745    3.5184 H         1 <0>         0.0000
     46 H18         1.2313   -0.4699   -0.0560 H         1 <0>         0.0000
     47 H19         0.5202    1.1067   -0.4031 H         1 <0>         0.0000
     48 H20        -6.3953   -2.7182   -3.3974 H         1 <0>         0.0000
     49 H21        -6.2589   -0.9280   -3.3400 H         1 <0>         0.0000
     50 H22        -1.9428   -4.7243   -0.4050 H         1 <0>         0.0000
     51 H23        -3.5926   -5.3832   -0.5587 H         1 <0>         0.0000
     52 H24        -2.5969   -3.6470    1.7610 H         1 <0>         0.0000
     53 H25        -2.8816   -5.4043    1.8555 H         1 <0>         0.0000
     54 H26         1.4160    0.4491    4.5847 H         1 <0>         0.0000
@<TRIPOS>BOND
     1    1    2 1
     2    1    5 2
     3    1    4 1
     4    2    3 2
     5    2   13 1
     6    3   16 1
     7    3   28 1
     8    4   20 am
     9    4   24 2
    10    5   21 1
    11    5   28 1
    12    6   21 am
    13    6   20 am
    14    6   25 2
    15    7   22 am
    16    7   23 am
    17    7   26 2
    18    8    9 1
    19    8   12 1
    20    8   29 1
    21    8   30 1
    22    9   12 1
    23    9   31 1
    24    9   32 1
    25   10   11 1
    26   10   22 1
    27   10   33 1
    28   10   34 1
    29   11   23 1
    30   11   35 1
    31   11   36 1
    32   12   14 1
    33   12   17 1
    34   13   37 1
    35   13   38 1
    36   13   39 1
    37   14   40 1
    38   14   41 1
    39   14   42 1
    40   15   27 1
    41   15   43 1
    42   15   44 1
    43   15   45 1
    44   16   23 1
    45   16   46 1
    46   16   47 1
    47   17   20 1
    48   17   48 1
    49   17   49 1
    50   18   19 1
    51   18   21 1
    52   18   50 1
    53   18   51 1
    54   19   27 1
    55   19   52 1
    56   19   53 1
    57   22   54 1
