@<TRIPOS>MOLECULE
*****
   43    45     0     0     0
SMALL
NO_CHARGES

@<TRIPOS>ATOM
      1 C1          4.3616   -7.0633   -1.9325 C.ar      1 <0>         0.0000
      2 C2          2.0234   -6.9113   -1.3637 C.ar      1 <0>         0.0000
      3 C3          4.3657   -5.7096   -2.2680 C.ar      1 <0>         0.0000
      4 C4          2.0298   -5.5602   -1.7002 C.ar      1 <0>         0.0000
      5 C5          6.4345   -1.8126   -2.8452 C.2       1 <0>         0.0000
      6 C6          5.2598   -2.2249   -3.4345 C.2       1 <0>         0.0000
      7 C7          5.3270   -2.8351   -1.3129 C.2       1 <0>         0.0000
      8 C8          3.1903   -7.6833   -1.4711 C.ar      1 <0>         0.0000
      9 C9          3.2032   -4.9330   -2.1508 C.ar      1 <0>         0.0000
     10 C10         3.1340   -9.1320   -1.0917 C.2       1 <0>         0.0000
     11 C11         0.9529   -0.2114   -0.5970 C.3       1 <0>         0.0000
     12 C12         0.9318   -0.3282   -2.1273 C.3       1 <0>         0.0000
     13 C13         0.9932   -1.5946    0.0667 C.3       1 <0>         0.0000
     14 C14         2.1001   -1.1803   -2.6440 C.3       1 <0>         0.0000
     15 C15         2.1721   -2.4289   -0.4554 C.3       1 <0>         0.0000
     16 C16         2.1124   -2.5704   -1.9851 C.3       1 <0>         0.0000
     17 C17         4.3983   -9.9650   -1.2064 C.3       1 <0>         0.0000
     18 C18         3.2141   -3.4693   -2.5954 C.3       1 <0>         0.0000
     19 N1          6.4672   -2.2014   -1.5209 N.2       1 <0>         0.0000
     20 N2          4.5498   -2.8819   -2.4438 N.pl3     1 <0>         0.0000
     21 O1          2.0874   -9.6343   -0.6969 O.2       1 <0>         0.0000
     22 H1          5.2823   -7.6295   -2.0339 H         1 <0>         0.0000
     23 H2          1.1170   -7.3921   -1.0090 H         1 <0>         0.0000
     24 H3          5.2850   -5.2528   -2.6205 H         1 <0>         0.0000
     25 H4          1.1078   -4.9971   -1.6043 H         1 <0>         0.0000
     26 H5          7.2527   -1.2657   -3.2961 H         1 <0>         0.0000
     27 H6          4.8653   -2.1130   -4.4345 H         1 <0>         0.0000
     28 H7          5.0262   -3.3036   -0.3862 H         1 <0>         0.0000
     29 H8          0.0803    0.3529   -0.2482 H         1 <0>         0.0000
     30 H9          1.8404    0.3590   -0.2911 H         1 <0>         0.0000
     31 H10        -0.0165   -0.7849   -2.4429 H         1 <0>         0.0000
     32 H11         0.9672    0.6670   -2.5849 H         1 <0>         0.0000
     33 H12         1.0651   -1.4919    1.1554 H         1 <0>         0.0000
     34 H13         0.0526   -2.1254   -0.1367 H         1 <0>         0.0000
     35 H14         2.0345   -1.2829   -3.7351 H         1 <0>         0.0000
     36 H15         3.0474   -0.6701   -2.4324 H         1 <0>         0.0000
     37 H16         3.1066   -1.9274   -0.1783 H         1 <0>         0.0000
     38 H17         2.1836   -3.4124    0.0262 H         1 <0>         0.0000
     39 H18         1.1579   -3.0474   -2.2432 H         1 <0>         0.0000
     40 H19         5.1964   -9.5528   -0.5796 H         1 <0>         0.0000
     41 H20         4.7658   -9.9768   -2.2382 H         1 <0>         0.0000
     42 H21         4.1797  -10.9852   -0.8892 H         1 <0>         0.0000
     43 H22         3.0338   -3.4784   -3.6772 H         1 <0>         0.0000
@<TRIPOS>BOND
     1    1    3 ar
     2    1    8 ar
     3    1   22 1
     4    2    4 ar
     5    2    8 ar
     6    2   23 1
     7    3    9 ar
     8    3   24 1
     9    4    9 ar
    10    4   25 1
    11    5    6 2
    12    5   19 1
    13    5   26 1
    14    6   20 1
    15    6   27 1
    16    7   19 2
    17    7   20 1
    18    7   28 1
    19    8   10 1
    20    9   18 1
    21   10   17 1
    22   10   21 2
    23   11   13 1
    24   11   12 1
    25   11   29 1
    26   11   30 1
    27   12   14 1
    28   12   31 1
    29   12   32 1
    30   13   15 1
    31   13   33 1
    32   13   34 1
    33   14   16 1
    34   14   35 1
    35   14   36 1
    36   15   16 1
    37   15   37 1
    38   15   38 1
    39   16   18 1
    40   16   39 1
    41   17   40 1
    42   17   41 1
    43   17   42 1
    44   18   20 1
    45   18   43 1
