@<TRIPOS>MOLECULE
*****
   67    69     0     0     0
SMALL
NO_CHARGES

@<TRIPOS>ATOM
      1 C1          4.6153   -1.2921    8.7789 C.ar      1 <0>         0.0000
      2 C2         -0.5705   -3.8503    2.9118 C.ar      1 <0>         0.0000
      3 C3          3.4085   -0.7917    8.2738 C.ar      1 <0>         0.0000
      4 C4          5.7286   -1.3845    7.9392 C.ar      1 <0>         0.0000
      5 C5         -0.4592   -2.8972    3.9314 C.ar      1 <0>         0.0000
      6 C6          0.5520   -4.1702    2.1439 C.ar      1 <0>         0.0000
      7 C7          3.3192   -0.3860    6.9410 C.ar      1 <0>         0.0000
      8 C8          5.6334   -0.9793    6.6026 C.ar      1 <0>         0.0000
      9 C9          0.7663   -2.2779    4.1845 C.ar      1 <0>         0.0000
     10 C10         1.7779   -3.5446    2.3986 C.ar      1 <0>         0.0000
     11 C11         4.4323   -0.4744    6.0913 C.ar      1 <0>         0.0000
     12 C12         1.9008   -2.6000    3.4244 C.ar      1 <0>         0.0000
     13 C13         0.8297    1.5425   -0.3401 C.2       1 <0>         0.0000
     14 C14        -1.2965   -0.4874   -2.4443 C.3       1 <0>         0.0000
     15 C15        -0.2666    0.6529   -2.3818 C.3       1 <0>         0.0000
     16 C16        -1.2214    0.0385   -0.1962 C.3       1 <0>         0.0000
     17 C17         1.0355    0.2484   -3.0808 C.3       1 <0>         0.0000
     18 C18        -0.8387    1.9537   -2.9661 C.3       1 <0>         0.0000
     19 C19        -2.0500    0.9363    0.7201 C.3       1 <0>         0.0000
     20 C20        -0.7026   -1.2072    0.5253 C.3       1 <0>         0.0000
     21 C21         1.0952    3.6398    1.9947 C.3       1 <0>         0.0000
     22 C22         4.3292   -0.0075    4.6534 C.3       1 <0>         0.0000
     23 C23         3.2381   -1.9638    3.7429 C.3       1 <0>         0.0000
     24 C24         2.1125    1.5411    3.0246 C.3       1 <0>         0.0000
     25 C25         2.8245    0.2142    2.7508 C.3       1 <0>         0.0000
     26 C26         1.7564    2.2892    1.7446 C.3       1 <0>         0.0000
     27 N1         -0.1239    0.7574   -0.9089 N.am      1 <0>         0.0000
     28 N2          3.1349   -0.5215    3.9799 N.3       1 <0>         0.0000
     29 O1          1.6143    2.2567   -0.9585 O.2       1 <0>         0.0000
     30 O2         -2.0899   -0.3391   -1.2734 O.3       1 <0>         0.0000
     31 O3          0.8322    1.4285    1.0198 O.3       1 <0>         0.0000
     32 H1          4.6843   -1.6106    9.8159 H         1 <0>         0.0000
     33 H2         -1.5251   -4.3304    2.7122 H         1 <0>         0.0000
     34 H3          2.5378   -0.7200    8.9212 H         1 <0>         0.0000
     35 H4          6.6678   -1.7775    8.3205 H         1 <0>         0.0000
     36 H5         -1.3305   -2.6369    4.5277 H         1 <0>         0.0000
     37 H6          0.4728   -4.8992    1.3413 H         1 <0>         0.0000
     38 H7          2.3827   -0.0081    6.5400 H         1 <0>         0.0000
     39 H8          6.5004   -1.0628    5.9503 H         1 <0>         0.0000
     40 H9          0.8576   -1.5321    4.9686 H         1 <0>         0.0000
     41 H10         2.6464   -3.7925    1.7916 H         1 <0>         0.0000
     42 H11        -1.9573   -0.4126   -3.3105 H         1 <0>         0.0000
     43 H12        -0.7950   -1.4655   -2.4585 H         1 <0>         0.0000
     44 H13         1.7572    1.0653   -3.0725 H         1 <0>         0.0000
     45 H14         0.8203   -0.0216   -4.1210 H         1 <0>         0.0000
     46 H15         1.4847   -0.6191   -2.5867 H         1 <0>         0.0000
     47 H16        -0.1699    2.7894   -2.7494 H         1 <0>         0.0000
     48 H17        -1.8233    2.1640   -2.5373 H         1 <0>         0.0000
     49 H18        -0.9455    1.8675   -4.0531 H         1 <0>         0.0000
     50 H19        -2.3362    1.8488    0.1907 H         1 <0>         0.0000
     51 H20        -1.4974    1.1984    1.6215 H         1 <0>         0.0000
     52 H21        -2.9587    0.3968    1.0015 H         1 <0>         0.0000
     53 H22        -0.1686   -1.8626   -0.1675 H         1 <0>         0.0000
     54 H23        -1.5438   -1.7616    0.9479 H         1 <0>         0.0000
     55 H24        -0.0243   -0.9385    1.3357 H         1 <0>         0.0000
     56 H25         0.1828    3.5194    2.5880 H         1 <0>         0.0000
     57 H26         1.7779    4.3003    2.5398 H         1 <0>         0.0000
     58 H27         0.8408    4.1196    1.0462 H         1 <0>         0.0000
     59 H28         4.2762    1.0859    4.6429 H         1 <0>         0.0000
     60 H29         5.2536   -0.2779    4.1094 H         1 <0>         0.0000
     61 H30         3.6340   -2.4189    4.6573 H         1 <0>         0.0000
     62 H31         3.9610   -2.1953    2.9385 H         1 <0>         0.0000
     63 H32         1.2031    1.3414    3.6025 H         1 <0>         0.0000
     64 H33         2.7393    2.2023    3.6334 H         1 <0>         0.0000
     65 H34         2.1621   -0.4070    2.1455 H         1 <0>         0.0000
     66 H35         3.7332    0.3889    2.1440 H         1 <0>         0.0000
     67 H36         2.6429    2.4227    1.1197 H         1 <0>         0.0000
@<TRIPOS>BOND
     1    1    4 ar
     2    1    3 ar
     3    1   32 1
     4    2    6 ar
     5    2    5 ar
     6    2   33 1
     7    3    7 ar
     8    3   34 1
     9    4    8 ar
    10    4   35 1
    11    5    9 ar
    12    5   36 1
    13    6   10 ar
    14    6   37 1
    15    7   11 ar
    16    7   38 1
    17    8   11 ar
    18    8   39 1
    19    9   12 ar
    20    9   40 1
    21   10   12 ar
    22   10   41 1
    23   11   22 1
    24   12   23 1
    25   13   27 am
    26   13   29 2
    27   13   31 1
    28   14   15 1
    29   14   30 1
    30   14   42 1
    31   14   43 1
    32   15   17 1
    33   15   18 1
    34   15   27 1
    35   16   19 1
    36   16   20 1
    37   16   27 1
    38   16   30 1
    39   17   44 1
    40   17   45 1
    41   17   46 1
    42   18   47 1
    43   18   48 1
    44   18   49 1
    45   19   50 1
    46   19   51 1
    47   19   52 1
    48   20   53 1
    49   20   54 1
    50   20   55 1
    51   21   26 1
    52   21   56 1
    53   21   57 1
    54   21   58 1
    55   22   28 1
    56   22   59 1
    57   22   60 1
    58   23   28 1
    59   23   61 1
    60   23   62 1
    61   24   25 1
    62   24   26 1
    63   24   63 1
    64   24   64 1
    65   25   28 1
    66   25   65 1
    67   25   66 1
    68   26   31 1
    69   26   67 1
