@<TRIPOS>MOLECULE
*****
   33    35     0     0     0
SMALL
NO_CHARGES

@<TRIPOS>ATOM
      1 C1         -3.6413   -3.1213   -0.4767 C.ar      1 <0>         0.0000
      2 C2         -3.3326   -2.1719   -1.4506 C.ar      1 <0>         0.0000
      3 C3         -2.9008   -3.0993    0.7064 C.ar      1 <0>         0.0000
      4 C4         -2.3070   -1.2465   -1.2293 C.ar      1 <0>         0.0000
      5 C5         -1.6188   -1.3088    0.0027 C.ar      1 <0>         0.0000
      6 C6          0.5837   -0.2174   -5.1222 C.3       1 <0>         0.0000
      7 C7          0.4047    0.9952   -4.2297 C.3       1 <0>         0.0000
      8 C8          0.7509   -0.8554    0.9083 C.3       1 <0>         0.0000
      9 C9          0.7055   -0.2205   -0.4664 C.3       1 <0>         0.0000
     10 C10        -0.7209   -0.0006   -4.3953 C.3       1 <0>         0.0000
     11 C11        -0.5517   -0.3122    0.3756 C.3       1 <0>         0.0000
     12 C12        -1.1070    0.9566    1.0078 C.3       1 <0>         0.0000
     13 C13        -1.9597   -0.2617   -2.3227 C.3       1 <0>         0.0000
     14 N1         -1.9230   -2.2180    0.9460 N.ar      1 <0>         0.0000
     15 N2         -1.0090   -0.8603   -3.2743 N.3       1 <0>         0.0000
     16 H1         -4.4331   -3.8508   -0.6227 H         1 <0>         0.0000
     17 H2         -3.8921   -2.1414   -2.3846 H         1 <0>         0.0000
     18 H3         -3.1036   -3.8176    1.5002 H         1 <0>         0.0000
     19 H4          0.6017   -0.0703   -6.1982 H         1 <0>         0.0000
     20 H5          1.2195   -1.0159   -4.7528 H         1 <0>         0.0000
     21 H6          0.9208    0.9883   -3.2753 H         1 <0>         0.0000
     22 H7          0.3017    1.9707   -4.6958 H         1 <0>         0.0000
     23 H8          0.8532   -1.9340    0.9717 H         1 <0>         0.0000
     24 H9          1.2309   -0.3083    1.7152 H         1 <0>         0.0000
     25 H10         1.1498    0.7643   -0.5931 H         1 <0>         0.0000
     26 H11         0.7767   -0.8641   -1.3370 H         1 <0>         0.0000
     27 H12        -1.5698    0.3332   -5.0017 H         1 <0>         0.0000
     28 H13        -0.2965    1.6390    1.2849 H         1 <0>         0.0000
     29 H14        -1.6748    0.7151    1.9128 H         1 <0>         0.0000
     30 H15        -1.7757    1.4894    0.3212 H         1 <0>         0.0000
     31 H16        -2.8910    0.0636   -2.8199 H         1 <0>         0.0000
     32 H17        -1.4911    0.6331   -1.9093 H         1 <0>         0.0000
     33 H18        -1.3757   -1.7515   -3.6047 H         1 <0>         0.0000
@<TRIPOS>BOND
     1    1    2 ar
     2    1    3 ar
     3    1   16 1
     4    2    4 ar
     5    2   17 1
     6    3   14 ar
     7    3   18 1
     8    4    5 ar
     9    4   13 1
    10    5   11 1
    11    5   14 ar
    12    6    7 1
    13    6   10 1
    14    6   19 1
    15    6   20 1
    16    7   10 1
    17    7   21 1
    18    7   22 1
    19    8    9 1
    20    8   11 1
    21    8   23 1
    22    8   24 1
    23    9   11 1
    24    9   25 1
    25    9   26 1
    26   10   15 1
    27   10   27 1
    28   11   12 1
    29   12   28 1
    30   12   29 1
    31   12   30 1
    32   13   15 1
    33   13   31 1
    34   13   32 1
    35   15   33 1
