@<TRIPOS>MOLECULE
*****
   33    35     0     0     0
SMALL
NO_CHARGES

@<TRIPOS>ATOM
      1 C1         -6.4260   -1.0779   -5.2329 C.ar      1 <0>         0.0000
      2 C2         -5.1465   -0.9764   -4.6865 C.ar      1 <0>         0.0000
      3 C3         -7.2028   -2.1845   -4.8868 C.ar      1 <0>         0.0000
      4 C4         -4.6812   -1.9716   -3.8195 C.ar      1 <0>         0.0000
      5 C5         -5.5502   -3.0450   -3.5232 C.ar      1 <0>         0.0000
      6 C6         -0.9275    0.3292   -2.5552 C.3       1 <0>         0.0000
      7 C7         -0.2638    0.2775   -3.9180 C.3       1 <0>         0.0000
      8 C8         -4.8148   -3.8656   -1.1664 C.3       1 <0>         0.0000
      9 C9         -6.0940   -4.5900   -1.5338 C.3       1 <0>         0.0000
     10 C10        -1.0924   -0.8876   -3.4365 C.3       1 <0>         0.0000
     11 C11        -5.1315   -4.1754   -2.6177 C.3       1 <0>         0.0000
     12 C12        -4.3506   -5.2750   -3.3243 C.3       1 <0>         0.0000
     13 C13        -3.2985   -1.8604   -3.2046 C.3       1 <0>         0.0000
     14 N1         -6.7814   -3.1434   -4.0536 N.ar      1 <0>         0.0000
     15 N2         -2.3832   -1.0851   -4.0491 N.3       1 <0>         0.0000
     16 H1         -6.8137   -0.3207   -5.9090 H         1 <0>         0.0000
     17 H2         -4.4979   -0.1377   -4.9209 H         1 <0>         0.0000
     18 H3         -8.2063   -2.3086   -5.2925 H         1 <0>         0.0000
     19 H4         -0.3031    0.2453   -1.6706 H         1 <0>         0.0000
     20 H5         -1.7960    0.9725   -2.4523 H         1 <0>         0.0000
     21 H6         -0.6953    0.8906   -4.7031 H         1 <0>         0.0000
     22 H7          0.8144    0.1557   -3.9647 H         1 <0>         0.0000
     23 H8         -4.9014   -2.8355   -0.8315 H         1 <0>         0.0000
     24 H9         -4.0149   -4.4265   -0.6893 H         1 <0>         0.0000
     25 H10        -6.1685   -5.6497   -1.3056 H         1 <0>         0.0000
     26 H11        -7.0300   -4.0458   -1.4631 H         1 <0>         0.0000
     27 H12        -0.5427   -1.7823   -3.1262 H         1 <0>         0.0000
     28 H13        -4.0671   -6.0658   -2.6216 H         1 <0>         0.0000
     29 H14        -3.4333   -4.8914   -3.7858 H         1 <0>         0.0000
     30 H15        -4.9626   -5.7232   -4.1143 H         1 <0>         0.0000
     31 H16        -3.3717   -1.3367   -2.2430 H         1 <0>         0.0000
     32 H17        -2.9082   -2.8600   -2.9704 H         1 <0>         0.0000
     33 H18        -2.2675   -1.5591   -4.9441 H         1 <0>         0.0000
@<TRIPOS>BOND
     1    1    2 ar
     2    1    3 ar
     3    1   16 1
     4    2    4 ar
     5    2   17 1
     6    3   14 ar
     7    3   18 1
     8    4    5 ar
     9    4   13 1
    10    5   11 1
    11    5   14 ar
    12    6    7 1
    13    6   10 1
    14    6   19 1
    15    6   20 1
    16    7   10 1
    17    7   21 1
    18    7   22 1
    19    8    9 1
    20    8   11 1
    21    8   23 1
    22    8   24 1
    23    9   11 1
    24    9   25 1
    25    9   26 1
    26   10   15 1
    27   10   27 1
    28   11   12 1
    29   12   28 1
    30   12   29 1
    31   12   30 1
    32   13   15 1
    33   13   31 1
    34   13   32 1
    35   15   33 1
