@<TRIPOS>MOLECULE
*****
   27    29     0     0     0
SMALL
NO_CHARGES

@<TRIPOS>ATOM
      1 C1          1.8851   -1.0363   -0.1124 C.ar      1 <0>         0.0000
      2 C2          0.8066   -0.4630    0.5610 C.ar      1 <0>         0.0000
      3 C3          5.0269   -4.1632    3.7174 C.ar      1 <0>         0.0000
      4 C4          6.0983   -3.3452    4.0584 C.ar      1 <0>         0.0000
      5 C5          2.9210   -1.6309    0.6081 C.ar      1 <0>         0.0000
      6 C6          0.7638   -0.4841    1.9551 C.ar      1 <0>         0.0000
      7 C7          3.9412   -3.6281    3.0330 C.ar      1 <0>         0.0000
      8 C8          6.0360   -2.0096    3.6950 C.ar      1 <0>         0.0000
      9 C9          2.0103   -1.0760    6.2032 C.2       1 <0>         0.0000
     10 C10         0.6565   -1.1025    5.9771 C.2       1 <0>         0.0000
     11 C11         2.8783   -1.6520    2.0022 C.ar      1 <0>         0.0000
     12 C12         1.7997   -1.0786    2.6757 C.ar      1 <0>         0.0000
     13 C13         3.9754   -2.2798    2.7157 C.ar      1 <0>         0.0000
     14 C14         1.7187   -1.0802    4.1204 C.2       1 <0>         0.0000
     15 N1          4.9984   -1.4538    3.0301 N.ar      1 <0>         0.0000
     16 N2          2.6857   -1.0621    5.0097 N.2       1 <0>         0.0000
     17 O1          0.4566   -1.1055    4.6297 O.3       1 <0>         0.0000
     18 H1          1.9181   -1.0198   -1.1979 H         1 <0>         0.0000
     19 H2          0.0000   -0.0003   -0.0003 H         1 <0>         0.0000
     20 H3          5.0372   -5.2153    3.9854 H         1 <0>         0.0000
     21 H4          6.9539   -3.7398    4.5941 H         1 <0>         0.0000
     22 H5          3.7541   -2.0730    0.0666 H         1 <0>         0.0000
     23 H6         -0.0849   -0.0324    2.4634 H         1 <0>         0.0000
     24 H7          3.1013   -4.2597    2.7618 H         1 <0>         0.0000
     25 H8          6.8457   -1.3291    3.9371 H         1 <0>         0.0000
     26 H9          2.5291   -1.0665    7.1500 H         1 <0>         0.0000
     27 H10        -0.2268   -1.1213    6.5973 H         1 <0>         0.0000
@<TRIPOS>BOND
     1    1    2 ar
     2    1    5 ar
     3    1   18 1
     4    2    6 ar
     5    2   19 1
     6    3    4 ar
     7    3    7 ar
     8    3   20 1
     9    4    8 ar
    10    4   21 1
    11    5   11 ar
    12    5   22 1
    13    6   12 ar
    14    6   23 1
    15    7   13 ar
    16    7   24 1
    17    8   15 ar
    18    8   25 1
    19    9   10 2
    20    9   16 1
    21    9   26 1
    22   10   17 1
    23   10   27 1
    24   11   12 ar
    25   11   13 1
    26   12   14 1
    27   13   15 ar
    28   14   16 2
    29   14   17 1
