@<TRIPOS>MOLECULE
*****
   31    32     0     0     0
SMALL
NO_CHARGES

@<TRIPOS>ATOM
      1 C1          2.0333   -0.7620   -0.0228 C.ar      1 <0>         0.0000
      2 C2          0.7448   -0.7449    0.5106 C.ar      1 <0>         0.0000
      3 C3          6.3896   -6.0502    6.6312 C.ar      1 <0>         0.0000
      4 C4          6.3997   -7.1652    5.7868 C.ar      1 <0>         0.0000
      5 C5          3.0936   -1.2281    0.7624 C.ar      1 <0>         0.0000
      6 C6          0.5169   -1.1627    1.8275 C.ar      1 <0>         0.0000
      7 C7          5.9376   -4.8308    6.1332 C.ar      1 <0>         0.0000
      8 C8          5.9651   -6.9902    4.4706 C.ar      1 <0>         0.0000
      9 C9          2.8831   -1.6483    2.0757 C.ar      1 <0>         0.0000
     10 C10         1.5828   -1.5936    2.6257 C.ar      1 <0>         0.0000
     11 C11         5.5298   -4.7673    4.7883 C.ar      1 <0>         0.0000
     12 C12         3.9945   -3.3854    3.4113 C.2       1 <0>         0.0000
     13 C13         0.1675   -2.2207    4.4439 C.3       1 <0>         0.0000
     14 N1          5.5551   -5.8202    3.9668 N.ar      1 <0>         0.0000
     15 N2          3.9643   -2.0935    2.8783 N.am      1 <0>         0.0000
     16 N3          5.1277   -3.5340    4.2428 N.am      1 <0>         0.0000
     17 O1          3.1551   -4.2391    3.2119 O.2       1 <0>         0.0000
     18 O2          1.4699   -1.9490    3.9367 O.3       1 <0>         0.0000
     19 H1          2.2136   -0.4396   -1.0441 H         1 <0>         0.0000
     20 H2         -0.0928   -0.4040   -0.0921 H         1 <0>         0.0000
     21 H3          6.7139   -6.1313    7.6655 H         1 <0>         0.0000
     22 H4          6.7347   -8.1384    6.1327 H         1 <0>         0.0000
     23 H5          4.0972   -1.2878    0.3469 H         1 <0>         0.0000
     24 H6         -0.4890   -1.1291    2.2309 H         1 <0>         0.0000
     25 H7          5.8863   -3.9501    6.7687 H         1 <0>         0.0000
     26 H8          5.9591   -7.8298    3.7768 H         1 <0>         0.0000
     27 H9          0.3169   -2.6186    5.4485 H         1 <0>         0.0000
     28 H10        -0.3449   -2.9688    3.8284 H         1 <0>         0.0000
     29 H11        -0.4408   -1.3091    4.5028 H         1 <0>         0.0000
     30 H12         4.8689   -1.6878    2.6718 H         1 <0>         0.0000
     31 H13         5.3436   -2.7187    4.8031 H         1 <0>         0.0000
@<TRIPOS>BOND
     1    1    2 ar
     2    1    5 ar
     3    1   19 1
     4    2    6 ar
     5    2   20 1
     6    3    4 ar
     7    3    7 ar
     8    3   21 1
     9    4    8 ar
    10    4   22 1
    11    5    9 ar
    12    5   23 1
    13    6   10 ar
    14    6   24 1
    15    7   11 ar
    16    7   25 1
    17    8   14 ar
    18    8   26 1
    19    9   10 ar
    20    9   15 1
    21   10   18 1
    22   11   14 ar
    23   11   16 1
    24   12   15 am
    25   12   16 am
    26   12   17 2
    27   13   18 1
    28   13   27 1
    29   13   28 1
    30   13   29 1
    31   15   30 1
    32   16   31 1
