@<TRIPOS>MOLECULE
*****
   17    17     0     0     0
SMALL
NO_CHARGES

@<TRIPOS>ATOM
      1 C1          5.8890   -0.0110    0.9270 C.ar      1 <0>         0.0000
      2 C2          5.9430    1.2700    0.3880 C.ar      1 <0>         0.0000
      3 C3          4.7120   -0.7270    0.7870 C.ar      1 <0>         0.0000
      4 C4          4.8290    1.7880   -0.2680 C.ar      1 <0>         0.0000
      5 C5          3.6370   -0.1320    0.1140 C.ar      1 <0>         0.0000
      6 C6          1.9310   -1.9120    0.3060 C.2       1 <0>         0.0000
      7 N1          3.6980    1.0940   -0.4010 N.ar      1 <0>         0.0000
      8 N2          0.6920   -2.1790   -0.1180 N.am      1 <0>         0.0000
      9 N3          2.4020   -0.7110   -0.1120 N.am      1 <0>         0.0000
     10 O1          2.5280   -2.7130    0.9990 O.2       1 <0>         0.0000
     11 H1          6.7240   -0.4270    1.4300 H         1 <0>         0.0000
     12 H2          6.8250    1.8490    0.4750 H         1 <0>         0.0000
     13 H3          4.6370   -1.7040    1.1820 H         1 <0>         0.0000
     14 H4          4.8640    2.7640   -0.6820 H         1 <0>         0.0000
     15 H5          0.3160   -3.1080    0.1080 H         1 <0>         0.0000
     16 H6          0.2190   -1.5760   -0.7950 H         1 <0>         0.0000
     17 H7          1.7630   -0.1170   -0.6390 H         1 <0>         0.0000
@<TRIPOS>BOND
     1    1    2 ar
     2    1    3 ar
     3    1   11 1
     4    2    4 ar
     5    2   12 1
     6    3    5 ar
     7    3   13 1
     8    4    7 ar
     9    4   14 1
    10    5    7 ar
    11    5    9 1
    12    6    8 am
    13    6    9 am
    14    6   10 2
    15    8   15 1
    16    8   16 1
    17    9   17 1
