@<TRIPOS>MOLECULE
*****
   23    24     0     0     0
SMALL
NO_CHARGES

@<TRIPOS>ATOM
      1 C1         -1.9802    2.6244   -0.9598 C.2       1 <0>         0.0000
      2 C2         -2.5001    1.3602   -0.5657 C.2       1 <0>         0.0000
      3 C3         -0.6802    2.5518   -1.4038 C.2       1 <0>         0.0000
      4 C4         -1.5866    0.3328   -0.7113 C.2       1 <0>         0.0000
      5 C5         -4.0912   -3.4673    0.5706 C.2       1 <0>         0.0000
      6 C6         -6.0969   -3.8101    1.3502 C.2       1 <0>         0.0000
      7 C7         -1.7330   -1.0821   -0.4233 C.2       1 <0>         0.0000
      8 N1         -4.5162   -4.5922    0.0580 N.2       1 <0>         0.0000
      9 N2         -5.8002   -4.8203    0.5712 N.2       1 <0>         0.0000
     10 N3         -2.8043   -1.5506    0.1177 N.2       1 <0>         0.0000
     11 N4         -5.0397   -2.9150    1.4030 N.pl3     1 <0>         0.0000
     12 N5         -4.9798   -1.7593    2.1964 N.3       1 <0>         0.0000
     13 N6         -2.8301   -2.9068    0.3888 N.pl3     1 <0>         0.0000
     14 S1         -0.0738    0.9347   -1.3454 S.3       1 <0>         0.0000
     15 S2         -7.6120   -3.5815    2.2113 S.3       1 <0>         0.0000
     16 H1         -2.5431    3.5513   -0.9239 H         1 <0>         0.0000
     17 H2         -3.5083    1.1968   -0.2014 H         1 <0>         0.0000
     18 H3         -0.0484    3.3537   -1.7637 H         1 <0>         0.0000
     19 H4         -0.8954   -1.7408   -0.6856 H         1 <0>         0.0000
     20 H5         -4.6405   -1.0034    1.6010 H         1 <0>         0.0000
     21 H6         -4.2783   -1.9098    2.9232 H         1 <0>         0.0000
     22 H7         -2.2333   -3.5059   -0.1843 H         1 <0>         0.0000
     23 H8         -7.2227   -2.3987    2.7377 H         1 <0>         0.0000
@<TRIPOS>BOND
     1    1    2 1
     2    1    3 2
     3    1   16 1
     4    2    4 2
     5    2   17 1
     6    3   14 1
     7    3   18 1
     8    4    7 1
     9    4   14 1
    10    5    8 2
    11    5   11 1
    12    5   13 1
    13    6    9 2
    14    6   11 1
    15    6   15 1
    16    7   10 2
    17    7   19 1
    18    8    9 1
    19   10   13 1
    20   11   12 1
    21   12   20 1
    22   12   21 1
    23   13   22 1
    24   15   23 1
