@<TRIPOS>MOLECULE
*****
   43    46     0     0     0
SMALL
NO_CHARGES

@<TRIPOS>ATOM
      1 C1          4.6142   -3.1085   -6.4530 C.ar      1 <0>         0.0000
      2 C2          5.9452   -3.0611   -6.8116 C.ar      1 <0>         0.0000
      3 C3          6.4720   -1.7422   -4.8225 C.ar      1 <0>         0.0000
      4 C4          3.2612   -1.2523   -2.9749 C.ar      1 <0>         0.0000
      5 C5          5.1038   -1.7873   -4.4516 C.ar      1 <0>         0.0000
      6 C6          4.1526   -2.4754   -5.2671 C.ar      1 <0>         0.0000
      7 C7          4.6046   -1.1664   -3.2697 C.ar      1 <0>         0.0000
      8 C8          6.8537   -2.3725   -5.9808 C.ar      1 <0>         0.0000
      9 C9          2.4052   -1.9615   -3.8590 C.ar      1 <0>         0.0000
     10 C10         0.3554   -3.4999    1.6761 C.3       1 <0>         0.0000
     11 C11        -1.5764   -2.1351    1.3014 C.3       1 <0>         0.0000
     12 C12         0.9507   -3.2469   -1.3639 C.3       1 <0>         0.0000
     13 C13        -0.7615   -2.0453   -1.6969 C.3       1 <0>         0.0000
     14 C14        -0.5606   -4.6326    2.1499 C.3       1 <0>         0.0000
     15 C15        -2.4613   -3.2896    1.7810 C.3       1 <0>         0.0000
     16 C16        -0.4073   -3.1114   -0.6238 C.3       1 <0>         0.0000
     17 C17         0.9203   -2.0315   -3.5575 C.3       1 <0>         0.0000
     18 N1          2.8226   -2.5596   -4.9603 N.ar      1 <0>         0.0000
     19 N2         -0.2941   -2.5778    0.7303 N.3       1 <0>         0.0000
     20 N3          0.6514   -2.0166   -2.1326 N.3       1 <0>         0.0000
     21 O1         -1.7657   -4.1149    2.7176 O.3       1 <0>         0.0000
     22 O2          5.5103   -0.5109   -2.4864 O.3       1 <0>         0.0000
     23 F1          8.1589   -2.3424   -6.3592 F         1 <0>         0.0000
     24 H1          3.8841   -3.6285   -7.0654 H         1 <0>         0.0000
     25 H2          6.3121   -3.5388   -7.7151 H         1 <0>         0.0000
     26 H3          7.1983   -1.2220   -4.2081 H         1 <0>         0.0000
     27 H4          2.8313   -0.8027   -2.0833 H         1 <0>         0.0000
     28 H5          0.6659   -2.9144    2.5502 H         1 <0>         0.0000
     29 H6          1.2599   -3.9154    1.2214 H         1 <0>         0.0000
     30 H7         -2.1160   -1.5297    0.5668 H         1 <0>         0.0000
     31 H8         -1.3522   -1.4883    2.1585 H         1 <0>         0.0000
     32 H9          1.8585   -3.1796   -0.7561 H         1 <0>         0.0000
     33 H10         1.0015   -4.1514   -1.9889 H         1 <0>         0.0000
     34 H11        -1.4509   -2.4401   -2.4587 H         1 <0>         0.0000
     35 H12        -1.1321   -1.0796   -1.3380 H         1 <0>         0.0000
     36 H13        -0.8048   -5.3141    1.3194 H         1 <0>         0.0000
     37 H14        -0.0769   -5.2177    2.9374 H         1 <0>         0.0000
     38 H15        -3.3441   -2.9095    2.3033 H         1 <0>         0.0000
     39 H16        -2.8044   -3.9011    0.9311 H         1 <0>         0.0000
     40 H17        -1.0290   -4.0154   -0.6928 H         1 <0>         0.0000
     41 H18         0.4321   -1.1541   -4.0031 H         1 <0>         0.0000
     42 H19         0.5132   -2.9213   -4.0683 H         1 <0>         0.0000
     43 H20         5.0492   -0.1307   -1.7206 H         1 <0>         0.0000
@<TRIPOS>BOND
     1    1    2 ar
     2    1    6 ar
     3    1   24 1
     4    2    8 ar
     5    2   25 1
     6    3    5 ar
     7    3    8 ar
     8    3   26 1
     9    4    7 ar
    10    4    9 ar
    11    4   27 1
    12    5    6 ar
    13    5    7 ar
    14    6   18 ar
    15    7   22 1
    16    8   23 1
    17    9   17 1
    18    9   18 ar
    19   10   14 1
    20   10   19 1
    21   10   28 1
    22   10   29 1
    23   11   15 1
    24   11   19 1
    25   11   30 1
    26   11   31 1
    27   12   16 1
    28   12   20 1
    29   12   32 1
    30   12   33 1
    31   13   16 1
    32   13   20 1
    33   13   34 1
    34   13   35 1
    35   14   21 1
    36   14   36 1
    37   14   37 1
    38   15   21 1
    39   15   38 1
    40   15   39 1
    41   16   19 1
    42   16   40 1
    43   17   20 1
    44   17   41 1
    45   17   42 1
    46   22   43 1
