@<TRIPOS>MOLECULE
*****
   29    30     0     0     0
SMALL
NO_CHARGES

@<TRIPOS>ATOM
      1 C1          6.0407   -2.7143   -1.6308 C.ar      1 <0>         0.0000
      2 C2          2.8978   -0.4660    1.4656 C.ar      1 <0>         0.0000
      3 C3          1.3659   -1.2138   -0.2762 C.ar      1 <0>         0.0000
      4 C4          7.0934   -3.2754   -2.3316 C.ar      1 <0>         0.0000
      5 C5          1.8375    0.1014    2.1702 C.ar      1 <0>         0.0000
      6 C6          0.3028   -0.6518    0.4214 C.ar      1 <0>         0.0000
      7 C7          5.5424   -4.0392   -4.0505 C.ar      1 <0>         0.0000
      8 C8          2.6702   -1.1260    0.2479 C.ar      1 <0>         0.0000
      9 C9          4.7133   -2.7938   -2.1084 C.ar      1 <0>         0.0000
     10 C10         6.8454   -3.9414   -3.5477 C.ar      1 <0>         0.0000
     11 C11         4.5047   -3.4662   -3.3248 C.ar      1 <0>         0.0000
     12 C12         0.5506   -0.0064    1.6398 C.ar      1 <0>         0.0000
     13 N1          3.8239   -1.6621   -0.3793 N.2       1 <0>         0.0000
     14 N2          3.5860   -2.2573   -1.4710 N.2       1 <0>         0.0000
     15 O1         -0.3201    1.7760    3.3854 O.2       1 <0>         0.0000
     16 O2         -1.9577    0.8677    1.6402 O.2       1 <0>         0.0000
     17 O3          7.9208   -4.4742   -4.1945 O.3       1 <0>         0.0000
     18 O4         -1.2176   -0.5287    3.5706 O.3       1 <0>         0.0000
     19 F1          3.2584   -3.5701   -3.8236 F         1 <0>         0.0000
     20 S1         -0.8177    0.7027    2.5423 S.o2      1 <0>         0.0000
     21 H1          6.2126   -2.1973   -0.6930 H         1 <0>         0.0000
     22 H2          3.9145   -0.4039    1.8417 H         1 <0>         0.0000
     23 H3          1.2097   -1.7155   -1.2248 H         1 <0>         0.0000
     24 H4          8.1142   -3.2159   -1.9677 H         1 <0>         0.0000
     25 H5          2.0005    0.6267    3.1056 H         1 <0>         0.0000
     26 H6         -0.7071   -0.6904    0.0252 H         1 <0>         0.0000
     27 H7          5.3202   -4.5466   -4.9857 H         1 <0>         0.0000
     28 H8          7.6316   -4.9046   -5.0154 H         1 <0>         0.0000
     29 H9         -2.0350   -0.9420    3.2318 H         1 <0>         0.0000
@<TRIPOS>BOND
     1    1    4 ar
     2    1    9 ar
     3    1   21 1
     4    2    5 ar
     5    2    8 ar
     6    2   22 1
     7    3    6 ar
     8    3    8 ar
     9    3   23 1
    10    4   10 ar
    11    4   24 1
    12    5   12 ar
    13    5   25 1
    14    6   12 ar
    15    6   26 1
    16    7   10 ar
    17    7   11 ar
    18    7   27 1
    19    8   13 1
    20    9   11 ar
    21    9   14 1
    22   10   17 1
    23   11   19 1
    24   12   20 1
    25   13   14 2
    26   15   20 2
    27   16   20 2
    28   17   28 1
    29   18   20 1
    30   18   29 1
