@<TRIPOS>MOLECULE
*****
   22    23     0     0     0
SMALL
NO_CHARGES

@<TRIPOS>ATOM
      1 C1         -0.4831    3.4418    1.9882 C.ar      1 <0>         0.0000
      2 C2         -0.5976    2.3744    1.0894 C.ar      1 <0>         0.0000
      3 C3         -0.2756    3.1909    3.3436 C.ar      1 <0>         0.0000
      4 C4         -0.5096    1.0465    1.5117 C.ar      1 <0>         0.0000
      5 C5         -0.2871    0.7944    2.8809 C.ar      1 <0>         0.0000
      6 C6         -0.1799    1.8678    3.7747 C.ar      1 <0>         0.0000
      7 C7          0.7845   -0.6587    0.0858 C.3       1 <0>         0.0000
      8 C8          0.4568    0.0465   -1.2540 C.3       1 <0>         0.0000
      9 C9         -0.6070   -0.1456    0.5802 C.3       1 <0>         0.0000
     10 N1         -0.9689    0.1087   -0.8356 N.3       1 <0>         0.0000
     11 O1         -0.1782   -0.5101    3.2730 O.3       1 <0>         0.0000
     12 Cl1         0.0870    1.5165    5.4849 Cl        1 <0>         0.0000
     13 H1         -0.5563    4.4660    1.6346 H         1 <0>         0.0000
     14 H2         -0.7561    2.5890    0.0363 H         1 <0>         0.0000
     15 H3         -0.1864    4.0001    4.0613 H         1 <0>         0.0000
     16 H4          0.8177   -1.7465    0.0016 H         1 <0>         0.0000
     17 H5          1.6544   -0.3032    0.6397 H         1 <0>         0.0000
     18 H6          0.9499    1.0249   -1.3418 H         1 <0>         0.0000
     19 H7          0.6255   -0.5219   -2.1747 H         1 <0>         0.0000
     20 H8         -1.2365   -0.9079    1.0486 H         1 <0>         0.0000
     21 H9         -1.4628    0.9769   -1.0293 H         1 <0>         0.0000
     22 H10        -0.0453   -0.5387    4.2374 H         1 <0>         0.0000
@<TRIPOS>BOND
     1    1    2 ar
     2    1    3 ar
     3    1   13 1
     4    2    4 ar
     5    2   14 1
     6    3    6 ar
     7    3   15 1
     8    4    5 ar
     9    4    9 1
    10    5    6 ar
    11    5   11 1
    12    6   12 1
    13    7    8 1
    14    7    9 1
    15    7   16 1
    16    7   17 1
    17    8   10 1
    18    8   18 1
    19    8   19 1
    20    9   10 1
    21    9   20 1
    22   10   21 1
    23   11   22 1
