@<TRIPOS>MOLECULE
*****
   39    41     0     0     0
SMALL
NO_CHARGES

@<TRIPOS>ATOM
      1 C1         -4.7705   -7.5077    7.9881 C.ar      1 <0>         0.0000
      2 C2         -5.7665   -6.5640    7.6947 C.ar      1 <0>         0.0000
      3 C3         -3.7832   -7.8256    7.0488 C.ar      1 <0>         0.0000
      4 C4         -5.7995   -5.9139    6.4538 C.ar      1 <0>         0.0000
      5 C5         -3.7215   -9.3072    2.1030 C.2       1 <0>         0.0000
      6 C6         -3.8130   -7.1810    5.8137 C.ar      1 <0>         0.0000
      7 C7         -3.9873   -8.2195    1.1991 C.2       1 <0>         0.0000
      8 C8         -4.8084   -6.2468    5.5412 C.ar      1 <0>         0.0000
      9 C9         -4.6239  -10.3071    1.8330 C.2       1 <0>         0.0000
     10 C10        -5.0745   -8.5972    0.4043 C.2       1 <0>         0.0000
     11 C11        -2.8539   -7.3860    4.6907 C.2       1 <0>         0.0000
     12 C12        -3.3088   -6.9333    1.1317 C.2       1 <0>         0.0000
     13 C13        -4.7730  -11.6617    2.4493 C.3       1 <0>         0.0000
     14 C14        -5.8233   -7.8281   -0.6345 C.3       1 <0>         0.0000
     15 C15        -6.5992  -10.5808    0.2797 C.3       1 <0>         0.0000
     16 C16        -2.4872   -6.4929    2.3614 C.3       1 <0>         0.0000
     17 N1         -5.4464   -9.8596    0.7951 N.pl3     1 <0>         0.0000
     18 N2         -3.2215   -6.5843    3.6210 N.am      1 <0>         0.0000
     19 O1         -1.8933   -8.1430    4.6929 O.2       1 <0>         0.0000
     20 O2         -3.3444   -6.1702    0.1667 O.2       1 <0>         0.0000
     21 O3         -5.6970   -5.9908    3.0167 O.2       1 <0>         0.0000
     22 O4         -4.1828   -4.1847    3.9213 O.2       1 <0>         0.0000
     23 S1         -4.6047   -5.5831    3.8956 S.o2      1 <0>         0.0000
     24 H1         -4.7678   -7.9960    8.9584 H         1 <0>         0.0000
     25 H2         -6.5232   -6.3318    8.4386 H         1 <0>         0.0000
     26 H3         -3.0036   -8.5521    7.2569 H         1 <0>         0.0000
     27 H4         -6.5667   -5.1826    6.2187 H         1 <0>         0.0000
     28 H5         -2.9262   -9.3702    2.8336 H         1 <0>         0.0000
     29 H6         -5.7672  -11.8142    2.8871 H         1 <0>         0.0000
     30 H7         -4.6010  -12.4710    1.7283 H         1 <0>         0.0000
     31 H8         -4.0379  -11.7730    3.2496 H         1 <0>         0.0000
     32 H9         -5.6879   -8.2604   -1.6342 H         1 <0>         0.0000
     33 H10        -6.8981   -7.8076   -0.4202 H         1 <0>         0.0000
     34 H11        -5.4488   -6.8059   -0.6651 H         1 <0>         0.0000
     35 H12        -7.5108  -10.3219    0.8309 H         1 <0>         0.0000
     36 H13        -6.7475  -10.3416   -0.7744 H         1 <0>         0.0000
     37 H14        -6.4317  -11.6554    0.3660 H         1 <0>         0.0000
     38 H15        -2.1600   -5.4642    2.1938 H         1 <0>         0.0000
     39 H16        -1.6089   -7.1333    2.4842 H         1 <0>         0.0000
@<TRIPOS>BOND
     1    1    2 ar
     2    1    3 ar
     3    1   24 1
     4    2    4 ar
     5    2   25 1
     6    3    6 ar
     7    3   26 1
     8    4    8 ar
     9    4   27 1
    10    5    7 1
    11    5    9 2
    12    5   28 1
    13    6    8 ar
    14    6   11 1
    15    7   10 2
    16    7   12 1
    17    8   23 1
    18    9   13 1
    19    9   17 1
    20   10   14 1
    21   10   17 1
    22   11   18 am
    23   11   19 2
    24   12   16 1
    25   12   20 2
    26   13   29 1
    27   13   30 1
    28   13   31 1
    29   14   32 1
    30   14   33 1
    31   14   34 1
    32   15   17 1
    33   15   35 1
    34   15   36 1
    35   15   37 1
    36   16   18 1
    37   16   38 1
    38   16   39 1
    39   18   23 1
    40   21   23 2
    41   22   23 2
