@<TRIPOS>MOLECULE
*****
   41    43     0     0     0
SMALL
NO_CHARGES

@<TRIPOS>ATOM
      1 C1         -2.7553   -5.5406    0.6065 C.ar      1 <0>         0.0000
      2 C2         -2.2933   -4.4972    1.4176 C.ar      1 <0>         0.0000
      3 C3         -2.9430   -5.3208   -0.7606 C.ar      1 <0>         0.0000
      4 C4         -2.0225   -3.2446    0.8643 C.ar      1 <0>         0.0000
      5 C5         -2.6715   -4.0630   -1.3104 C.ar      1 <0>         0.0000
      6 C6         -2.2109   -3.0141   -0.5057 C.ar      1 <0>         0.0000
      7 C7         -0.4206   -1.3448   -1.1874 C.2       1 <0>         0.0000
      8 C8         -0.5187    2.1408   -2.1908 C.3       1 <0>         0.0000
      9 C9          1.9104    0.9968   -1.0018 C.3       1 <0>         0.0000
     10 C10        -0.9485    0.7100   -2.5467 C.3       1 <0>         0.0000
     11 C11         1.3911    0.0012   -2.0853 C.3       1 <0>         0.0000
     12 C12         0.1300    3.8839   -0.4423 C.3       1 <0>         0.0000
     13 C13        -0.2838    2.3838   -0.6941 C.3       1 <0>         0.0000
     14 C14         0.7908    1.4613   -0.0703 C.3       1 <0>         0.0000
     15 C15        -1.9224   -1.6605   -1.1096 C.3       1 <0>         0.0000
     16 N1          1.3198    3.9786    0.4243 N.pl3     1 <0>         0.0000
     17 N2         -0.0395   -0.2907   -1.9883 N.am      1 <0>         0.0000
     18 O1          0.4120   -1.9974   -0.5607 O.2       1 <0>         0.0000
     19 O2          2.8613    2.2769    1.5806 O.2       1 <0>         0.0000
     20 O3          0.4342    2.5279    2.3422 O.2       1 <0>         0.0000
     21 S1          1.4465    2.5140    1.2851 S.o2      1 <0>         0.0000
     22 H1         -2.9661   -6.5159    1.0377 H         1 <0>         0.0000
     23 H2         -2.1405   -4.6618    2.4811 H         1 <0>         0.0000
     24 H3         -3.3008   -6.1247   -1.3990 H         1 <0>         0.0000
     25 H4         -1.6483   -2.4440    1.4970 H         1 <0>         0.0000
     26 H5         -2.8187   -3.8992   -2.3762 H         1 <0>         0.0000
     27 H6          0.3862    2.4068   -2.7483 H         1 <0>         0.0000
     28 H7         -1.2999    2.8247   -2.5440 H         1 <0>         0.0000
     29 H8          2.6831    0.5159   -0.3991 H         1 <0>         0.0000
     30 H9          2.3816    1.8600   -1.4851 H         1 <0>         0.0000
     31 H10        -1.9544    0.5351   -2.1675 H         1 <0>         0.0000
     32 H11        -0.9917    0.6131   -3.6405 H         1 <0>         0.0000
     33 H12         1.5809    0.3957   -3.0879 H         1 <0>         0.0000
     34 H13         1.9195   -0.9458   -1.9915 H         1 <0>         0.0000
     35 H14         0.3560    4.3876   -1.3852 H         1 <0>         0.0000
     36 H15        -0.6944    4.4168    0.0350 H         1 <0>         0.0000
     37 H16        -1.2189    2.2030   -0.1568 H         1 <0>         0.0000
     38 H17         0.3442    0.6067    0.4381 H         1 <0>         0.0000
     39 H18        -2.3674   -1.5971   -2.1066 H         1 <0>         0.0000
     40 H19        -2.3976   -0.8759   -0.5062 H         1 <0>         0.0000
     41 H20         2.1869    4.1104   -0.0940 H         1 <0>         0.0000
@<TRIPOS>BOND
     1    1    3 ar
     2    1    2 ar
     3    1   22 1
     4    2    4 ar
     5    2   23 1
     6    3    5 ar
     7    3   24 1
     8    4    6 ar
     9    4   25 1
    10    5    6 ar
    11    5   26 1
    12    6   15 1
    13    7   15 1
    14    7   17 am
    15    7   18 2
    16    8   10 1
    17    8   13 1
    18    8   27 1
    19    8   28 1
    20    9   11 1
    21    9   14 1
    22    9   29 1
    23    9   30 1
    24   10   17 1
    25   10   31 1
    26   10   32 1
    27   11   17 1
    28   11   33 1
    29   11   34 1
    30   12   13 1
    31   12   16 1
    32   12   35 1
    33   12   36 1
    34   13   14 1
    35   13   37 1
    36   14   21 1
    37   14   38 1
    38   15   39 1
    39   15   40 1
    40   16   21 1
    41   16   41 1
    42   19   21 2
    43   20   21 2
