@<TRIPOS>MOLECULE
*****
   41    43     0     0     0
SMALL
NO_CHARGES

@<TRIPOS>ATOM
      1 C1         -0.9106   -1.2229    7.2719 C.ar      1 <0>         0.0000
      2 C2         -1.0959    0.0799    6.7951 C.ar      1 <0>         0.0000
      3 C3          0.0019   -2.0668    6.6322 C.ar      1 <0>         0.0000
      4 C4         -0.3762    0.5343    5.6874 C.ar      1 <0>         0.0000
      5 C5          0.7192   -1.6097    5.5216 C.ar      1 <0>         0.0000
      6 C6          0.5388   -0.3071    5.0367 C.ar      1 <0>         0.0000
      7 C7          0.5192    1.0628    2.8816 C.2       1 <0>         0.0000
      8 C8         -0.1962   -1.6199    0.7823 C.3       1 <0>         0.0000
      9 C9         -0.4886    1.2948   -0.1978 C.3       1 <0>         0.0000
     10 C10        -0.7054   -0.9686    2.0792 C.3       1 <0>         0.0000
     11 C11        -1.1859    1.2995    1.1737 C.3       1 <0>         0.0000
     12 C12        -0.7846   -2.2884   -1.6213 C.3       1 <0>         0.0000
     13 C13        -1.0543   -1.3031   -0.4556 C.3       1 <0>         0.0000
     14 C14        -0.8394    0.0905   -1.0810 C.3       1 <0>         0.0000
     15 C15         1.3320    0.1946    3.8434 C.3       1 <0>         0.0000
     16 N1          0.4641   -1.9063   -2.3039 N.pl3     1 <0>         0.0000
     17 N2         -0.4835    0.4677    2.1511 N.am      1 <0>         0.0000
     18 O1          0.7474    2.2713    2.7952 O.2       1 <0>         0.0000
     19 O2          1.8197    0.2244   -1.8482 O.2       1 <0>         0.0000
     20 O3          0.0122    0.2825   -3.6463 O.2       1 <0>         0.0000
     21 S1          0.5002   -0.1877   -2.3496 S.o2      1 <0>         0.0000
     22 H1         -1.4711   -1.5756    8.1337 H         1 <0>         0.0000
     23 H2         -1.8012    0.7439    7.2885 H         1 <0>         0.0000
     24 H3          0.1561   -3.0797    6.9956 H         1 <0>         0.0000
     25 H4         -0.5224    1.5486    5.3241 H         1 <0>         0.0000
     26 H5          1.4289   -2.2725    5.0297 H         1 <0>         0.0000
     27 H6          0.8513   -1.3387    0.6226 H         1 <0>         0.0000
     28 H7         -0.2162   -2.7062    0.9371 H         1 <0>         0.0000
     29 H8         -0.7569    2.2044   -0.7441 H         1 <0>         0.0000
     30 H9          0.5897    1.3465   -0.0288 H         1 <0>         0.0000
     31 H10        -1.7830   -1.1571    2.1772 H         1 <0>         0.0000
     32 H11        -0.2400   -1.4468    2.9378 H         1 <0>         0.0000
     33 H12        -1.1970    2.3175    1.5618 H         1 <0>         0.0000
     34 H13        -2.2221    0.9500    1.1013 H         1 <0>         0.0000
     35 H14        -0.6949   -3.3210   -1.2767 H         1 <0>         0.0000
     36 H15        -1.5983   -2.2481   -2.3521 H         1 <0>         0.0000
     37 H16        -2.1090   -1.3930   -0.1690 H         1 <0>         0.0000
     38 H17        -1.7084    0.3213   -1.7030 H         1 <0>         0.0000
     39 H18         2.1464    0.8408    4.1804 H         1 <0>         0.0000
     40 H19         1.7890   -0.6476    3.3135 H         1 <0>         0.0000
     41 H20         1.2884   -2.1986   -1.7787 H         1 <0>         0.0000
@<TRIPOS>BOND
     1    1    3 ar
     2    1    2 ar
     3    1   22 1
     4    2    4 ar
     5    2   23 1
     6    3    5 ar
     7    3   24 1
     8    4    6 ar
     9    4   25 1
    10    5    6 ar
    11    5   26 1
    12    6   15 1
    13    7   15 1
    14    7   17 am
    15    7   18 2
    16    8   10 1
    17    8   13 1
    18    8   27 1
    19    8   28 1
    20    9   11 1
    21    9   14 1
    22    9   29 1
    23    9   30 1
    24   10   17 1
    25   10   31 1
    26   10   32 1
    27   11   17 1
    28   11   33 1
    29   11   34 1
    30   12   13 1
    31   12   16 1
    32   12   35 1
    33   12   36 1
    34   13   14 1
    35   13   37 1
    36   14   21 1
    37   14   38 1
    38   15   39 1
    39   15   40 1
    40   16   21 1
    41   16   41 1
    42   19   21 2
    43   20   21 2
