@<TRIPOS>MOLECULE
*****
   43    45     0     0     0
SMALL
NO_CHARGES

@<TRIPOS>ATOM
      1 C1          4.3264   -3.9878   -1.6414 C.ar      1 <0>         0.0000
      2 C2          4.8533   -4.0994   -0.3362 C.ar      1 <0>         0.0000
      3 C3          3.9603   -2.7432   -2.1513 C.ar      1 <0>         0.0000
      4 C4          5.0390   -2.9834    0.4802 C.ar      1 <0>         0.0000
      5 C5          4.1311   -1.6210   -1.3332 C.ar      1 <0>         0.0000
      6 C6          4.6685   -1.7394   -0.0418 C.ar      1 <0>         0.0000
      7 C7          3.7660   -0.2104   -1.5352 C.2       1 <0>         0.0000
      8 C8          2.8251    1.7034    1.1788 C.2       1 <0>         0.0000
      9 C9          0.1214    0.1427    2.0580 C.3       1 <0>         0.0000
     10 C10         0.5411    1.6235    1.9659 C.3       1 <0>         0.0000
     11 C11         0.9179    1.5979   -0.4433 C.3       1 <0>         0.0000
     12 C12         0.0010    0.3316   -0.4893 C.3       1 <0>         0.0000
     13 C13         0.2714   -0.6029    0.7164 C.3       1 <0>         0.0000
     14 C14        -1.4790    0.7193   -0.6370 C.3       1 <0>         0.0000
     15 C15        -0.6061   -1.8584    0.6969 C.3       1 <0>         0.0000
     16 C16         3.8603    1.7559    0.0421 C.3       1 <0>         0.0000
     17 N1          4.7781   -0.4764    0.5525 N.pl3     1 <0>         0.0000
     18 N2          4.1903    0.4142   -0.3782 N.am      1 <0>         0.0000
     19 N3          1.5028    1.8201    0.8818 N.am      1 <0>         0.0000
     20 O1          3.1997    0.3507   -2.4816 O.2       1 <0>         0.0000
     21 O2          3.2446    1.5421    2.3328 O.2       1 <0>         0.0000
     22 O3          1.6579   -1.0229    0.6723 O.3       1 <0>         0.0000
     23 H1          4.2086   -4.8815   -2.2475 H         1 <0>         0.0000
     24 H2          5.1258   -5.0810    0.0425 H         1 <0>         0.0000
     25 H3          3.5477   -2.6319   -3.1503 H         1 <0>         0.0000
     26 H4          5.4503   -3.0783    1.4812 H         1 <0>         0.0000
     27 H5          0.7453   -0.3810    2.7864 H         1 <0>         0.0000
     28 H6         -0.9143    0.0792    2.4057 H         1 <0>         0.0000
     29 H7         -0.3232    2.2593    1.7455 H         1 <0>         0.0000
     30 H8          0.9888    1.9647    2.8980 H         1 <0>         0.0000
     31 H9          1.7003    1.4972   -1.1901 H         1 <0>         0.0000
     32 H10         0.3215    2.4809   -0.7041 H         1 <0>         0.0000
     33 H11         0.2838   -0.2271   -1.3902 H         1 <0>         0.0000
     34 H12        -1.8630    1.2207    0.2583 H         1 <0>         0.0000
     35 H13        -2.1108   -0.1512   -0.8316 H         1 <0>         0.0000
     36 H14        -1.6060    1.4078   -1.4788 H         1 <0>         0.0000
     37 H15        -0.4921   -2.3999   -0.2505 H         1 <0>         0.0000
     38 H16        -1.6662   -1.6267    0.8277 H         1 <0>         0.0000
     39 H17        -0.2978   -2.5241    1.5088 H         1 <0>         0.0000
     40 H18         4.7502    2.2377    0.4550 H         1 <0>         0.0000
     41 H19         3.5388    2.2942   -0.8487 H         1 <0>         0.0000
     42 H20         4.3409   -0.3723    1.4716 H         1 <0>         0.0000
     43 H21         1.7850   -1.5630   -0.1255 H         1 <0>         0.0000
@<TRIPOS>BOND
     1    1    2 ar
     2    1    3 ar
     3    1   23 1
     4    2    4 ar
     5    2   24 1
     6    3    5 ar
     7    3   25 1
     8    4    6 ar
     9    4   26 1
    10    5    6 ar
    11    5    7 1
    12    6   17 1
    13    7   18 am
    14    7   20 2
    15    8   16 1
    16    8   19 am
    17    8   21 2
    18    9   10 1
    19    9   13 1
    20    9   27 1
    21    9   28 1
    22   10   19 1
    23   10   29 1
    24   10   30 1
    25   11   12 1
    26   11   19 1
    27   11   31 1
    28   11   32 1
    29   12   13 1
    30   12   14 1
    31   12   33 1
    32   13   15 1
    33   13   22 1
    34   14   34 1
    35   14   35 1
    36   14   36 1
    37   15   37 1
    38   15   38 1
    39   15   39 1
    40   16   18 1
    41   16   40 1
    42   16   41 1
    43   17   18 1
    44   17   42 1
    45   22   43 1
