@<TRIPOS>MOLECULE
*****
   43    45     0     0     0
SMALL
NO_CHARGES

@<TRIPOS>ATOM
      1 C1         -4.0464    6.1767   -2.9018 C.ar      1 <0>         0.0000
      2 C2         -4.9051    5.2692   -3.5578 C.ar      1 <0>         0.0000
      3 C3         -3.2957    5.7696   -1.8000 C.ar      1 <0>         0.0000
      4 C4         -5.0256    3.9410   -3.1456 C.ar      1 <0>         0.0000
      5 C5         -3.4244    4.4454   -1.3702 C.ar      1 <0>         0.0000
      6 C6         -4.2606    3.5444   -2.0435 C.ar      1 <0>         0.0000
      7 C7         -2.7971    3.7233   -0.2531 C.2       1 <0>         0.0000
      8 C8         -2.3413    0.1942   -0.5168 C.2       1 <0>         0.0000
      9 C9          0.9689   -0.7872   -1.6912 C.3       1 <0>         0.0000
     10 C10        -0.5549   -0.7115   -1.8835 C.3       1 <0>         0.0000
     11 C11        -0.2022    1.4747   -0.8001 C.3       1 <0>         0.0000
     12 C12         1.0024    1.0296    0.0593 C.3       1 <0>         0.0000
     13 C13         1.3774   -0.4486   -0.2463 C.3       1 <0>         0.0000
     14 C14         2.1330    2.0466   -0.1326 C.3       1 <0>         0.0000
     15 C15         2.8544   -0.7695   -0.0028 C.3       1 <0>         0.0000
     16 C16        -2.8867    1.2891    0.4162 C.3       1 <0>         0.0000
     17 N1         -4.1463    2.2688   -1.4704 N.pl3     1 <0>         0.0000
     18 N2         -3.3625    2.4548   -0.3029 N.am      1 <0>         0.0000
     19 N3         -1.1221    0.3807   -1.0855 N.am      1 <0>         0.0000
     20 O1         -1.9355    4.0774    0.5563 O.2       1 <0>         0.0000
     21 O2         -3.0409   -0.8009   -0.7313 O.2       1 <0>         0.0000
     22 O3          0.5771   -1.2191    0.6804 O.3       1 <0>         0.0000
     23 H1         -3.9761    7.1993   -3.2614 H         1 <0>         0.0000
     24 H2         -5.4837    5.6103   -4.4123 H         1 <0>         0.0000
     25 H3         -2.6330    6.4510   -1.2742 H         1 <0>         0.0000
     26 H4         -5.6773    3.2457   -3.6675 H         1 <0>         0.0000
     27 H5          1.3089   -1.7951   -1.9586 H         1 <0>         0.0000
     28 H6          1.4861   -0.1005   -2.3715 H         1 <0>         0.0000
     29 H7         -0.8013   -0.5700   -2.9439 H         1 <0>         0.0000
     30 H8         -1.0385   -1.6322   -1.5583 H         1 <0>         0.0000
     31 H9         -0.7105    2.3031   -0.3139 H         1 <0>         0.0000
     32 H10         0.1601    1.8626   -1.7618 H         1 <0>         0.0000
     33 H11         0.6990    1.0402    1.1116 H         1 <0>         0.0000
     34 H12         2.5309    2.0199   -1.1542 H         1 <0>         0.0000
     35 H13         2.9621    1.8795    0.5592 H         1 <0>         0.0000
     36 H14         1.7535    3.0587    0.0444 H         1 <0>         0.0000
     37 H15         3.1384   -0.5158    1.0226 H         1 <0>         0.0000
     38 H16         3.5133   -0.2337   -0.6921 H         1 <0>         0.0000
     39 H17         3.0298   -1.8427   -0.1451 H         1 <0>         0.0000
     40 H18        -2.1547    1.6576    1.1372 H         1 <0>         0.0000
     41 H19        -3.7109    0.8231    0.9634 H         1 <0>         0.0000
     42 H20        -5.0208    1.7891   -1.2599 H         1 <0>         0.0000
     43 H21         0.7233   -2.1614    0.4960 H         1 <0>         0.0000
@<TRIPOS>BOND
     1    1    2 ar
     2    1    3 ar
     3    1   23 1
     4    2    4 ar
     5    2   24 1
     6    3    5 ar
     7    3   25 1
     8    4    6 ar
     9    4   26 1
    10    5    6 ar
    11    5    7 1
    12    6   17 1
    13    7   18 am
    14    7   20 2
    15    8   16 1
    16    8   19 am
    17    8   21 2
    18    9   10 1
    19    9   13 1
    20    9   27 1
    21    9   28 1
    22   10   19 1
    23   10   29 1
    24   10   30 1
    25   11   12 1
    26   11   19 1
    27   11   31 1
    28   11   32 1
    29   12   13 1
    30   12   14 1
    31   12   33 1
    32   13   15 1
    33   13   22 1
    34   14   34 1
    35   14   35 1
    36   14   36 1
    37   15   37 1
    38   15   38 1
    39   15   39 1
    40   16   18 1
    41   16   40 1
    42   16   41 1
    43   17   18 1
    44   17   42 1
    45   22   43 1
