@<TRIPOS>MOLECULE
*****
   44    46     0     0     0
SMALL
NO_CHARGES

@<TRIPOS>ATOM
      1 C1         -0.1142   -7.5601    3.5131 C.ar      1 <0>         0.0000
      2 C2         -1.0834   -7.0255    4.3669 C.ar      1 <0>         0.0000
      3 C3         -0.5665   -5.8358    1.9093 C.ar      1 <0>         0.0000
      4 C4         -3.0259   -2.0523    2.2273 C.2       1 <0>         0.0000
      5 C5          0.1597   -6.9786    2.2677 C.ar      1 <0>         0.0000
      6 C6         -1.8163   -5.8861    4.0145 C.ar      1 <0>         0.0000
      7 C7         -1.5280   -5.3093    2.7687 C.ar      1 <0>         0.0000
      8 C8         -3.8831   -2.9874    1.5615 C.2       1 <0>         0.0000
      9 C9         -1.9919   -2.8462    2.7090 C.2       1 <0>         0.0000
     10 C10        -3.1039   -0.5890    2.3107 C.2       1 <0>         0.0000
     11 C11        -5.3385   -1.2318    4.1124 C.3       1 <0>         0.0000
     12 C12        -6.2714    0.7757    3.1553 C.3       1 <0>         0.0000
     13 C13        -6.7615   -1.7060    4.3971 C.3       1 <0>         0.0000
     14 C14        -7.6646    0.2308    3.4431 C.3       1 <0>         0.0000
     15 C15         1.1796   -7.5776    1.3275 C.3       1 <0>         0.0000
     16 C16        -2.8637   -5.2911    4.9225 C.3       1 <0>         0.0000
     17 C17        -5.1236   -2.7044    0.7759 C.3       1 <0>         0.0000
     18 N1         -3.4125   -4.2330    1.6601 N.2       1 <0>         0.0000
     19 N2         -4.1015    0.1864    2.5658 N.2       1 <0>         0.0000
     20 N3         -2.2461   -4.1371    2.3683 N.pl3     1 <0>         0.0000
     21 N4         -5.3393   -0.3404    2.9365 N.pl3     1 <0>         0.0000
     22 O1         -7.6647   -0.6223    4.5871 O.3       1 <0>         0.0000
     23 Cl1        -0.6025   -2.3955    3.6227 Cl        1 <0>         0.0000
     24 H1          0.4373   -8.4455    3.8220 H         1 <0>         0.0000
     25 H2         -1.2738   -7.5026    5.3253 H         1 <0>         0.0000
     26 H3         -0.3917   -5.3436    0.9560 H         1 <0>         0.0000
     27 H4         -2.1830   -0.0493    2.0873 H         1 <0>         0.0000
     28 H5         -4.9355   -0.6959    4.9872 H         1 <0>         0.0000
     29 H6         -4.7106   -2.1033    3.9275 H         1 <0>         0.0000
     30 H7         -6.2860    1.3894    2.2512 H         1 <0>         0.0000
     31 H8         -5.9347    1.4051    3.9941 H         1 <0>         0.0000
     32 H9         -7.1099   -2.3434    3.5696 H         1 <0>         0.0000
     33 H10        -6.7804   -2.2927    5.3193 H         1 <0>         0.0000
     34 H11        -8.3554    1.0480    3.6648 H         1 <0>         0.0000
     35 H12        -8.0395   -0.3210    2.5668 H         1 <0>         0.0000
     36 H13         0.7056   -8.2843    0.6358 H         1 <0>         0.0000
     37 H14         1.6686   -6.8071    0.7243 H         1 <0>         0.0000
     38 H15         1.9543   -8.1225    1.8748 H         1 <0>         0.0000
     39 H16        -2.5489   -4.3124    5.3018 H         1 <0>         0.0000
     40 H17        -3.8083   -5.1461    4.3889 H         1 <0>         0.0000
     41 H18        -3.0490   -5.9401    5.7819 H         1 <0>         0.0000
     42 H19        -4.9039   -2.0313   -0.0600 H         1 <0>         0.0000
     43 H20        -5.5295   -3.6378    0.3795 H         1 <0>         0.0000
     44 H21        -5.8715   -2.1991    1.3929 H         1 <0>         0.0000
@<TRIPOS>BOND
     1    1    2 ar
     2    1    5 ar
     3    1   24 1
     4    2    6 ar
     5    2   25 1
     6    3    5 ar
     7    3    7 ar
     8    3   26 1
     9    4    8 1
    10    4    9 2
    11    4   10 1
    12    5   15 1
    13    6    7 ar
    14    6   16 1
    15    7   20 1
    16    8   17 1
    17    8   18 2
    18    9   20 1
    19    9   23 1
    20   10   19 2
    21   10   27 1
    22   11   13 1
    23   11   21 1
    24   11   28 1
    25   11   29 1
    26   12   14 1
    27   12   21 1
    28   12   30 1
    29   12   31 1
    30   13   22 1
    31   13   32 1
    32   13   33 1
    33   14   22 1
    34   14   34 1
    35   14   35 1
    36   15   36 1
    37   15   37 1
    38   15   38 1
    39   16   39 1
    40   16   40 1
    41   16   41 1
    42   17   42 1
    43   17   43 1
    44   17   44 1
    45   18   20 1
    46   19   21 1
