@<TRIPOS>MOLECULE
*****
   24    24     0     0     0
SMALL
NO_CHARGES

@<TRIPOS>ATOM
      1 C1          0.9373   -0.0270    1.2227 C.1       1 <0>         0.0000
      2 C2         -0.5315   -1.9357    0.8267 C.2       1 <0>         0.0000
      3 C3         -1.3046    0.4233    0.2812 C.3       1 <0>         0.0000
      4 C4          0.4989   -0.6732   -1.1238 C.3       1 <0>         0.0000
      5 C5         -0.9174    1.7575   -0.3587 C.3       1 <0>         0.0000
      6 C6          0.8107    0.7069   -1.7049 C.3       1 <0>         0.0000
      7 C7         -0.0950   -0.5572    0.3113 C.3       1 <0>         0.0000
      8 C8         -1.9644   -3.7676    0.4161 C.3       1 <0>         0.0000
      9 N1          1.7536    0.4628    1.8889 N.1       1 <0>         0.0000
     10 N2         -0.4091    1.5221   -1.7147 N.3       1 <0>         0.0000
     11 O1         -0.0960   -2.4867    1.8146 O.2       1 <0>         0.0000
     12 O2         -1.4794   -2.4639    0.0233 O.3       1 <0>         0.0000
     13 H1         -1.6767    0.5817    1.2979 H         1 <0>         0.0000
     14 H2         -2.0948   -0.0453   -0.3097 H         1 <0>         0.0000
     15 H3         -0.2459   -1.1695   -1.7501 H         1 <0>         0.0000
     16 H4          1.4021   -1.2903   -1.1006 H         1 <0>         0.0000
     17 H5         -1.8087    2.3895   -0.4248 H         1 <0>         0.0000
     18 H6         -0.1888    2.2769    0.2873 H         1 <0>         0.0000
     19 H7          1.6309    1.1706   -1.1302 H         1 <0>         0.0000
     20 H8          1.1579    0.5857   -2.7360 H         1 <0>         0.0000
     21 H9         -2.7044   -4.0387   -0.3361 H         1 <0>         0.0000
     22 H10        -2.4190   -3.7180    1.4079 H         1 <0>         0.0000
     23 H11        -1.1433   -4.4875    0.4306 H         1 <0>         0.0000
     24 H12        -0.2174    2.4139   -2.1646 H         1 <0>         0.0000
@<TRIPOS>BOND
     1    1    7 1
     2    1    9 3
     3    2    7 1
     4    2   11 2
     5    2   12 1
     6    3    5 1
     7    3    7 1
     8    3   13 1
     9    3   14 1
    10    4    6 1
    11    4    7 1
    12    4   15 1
    13    4   16 1
    14    5   10 1
    15    5   17 1
    16    5   18 1
    17    6   10 1
    18    6   19 1
    19    6   20 1
    20    8   12 1
    21    8   21 1
    22    8   22 1
    23    8   23 1
    24   10   24 1
