@<TRIPOS>MOLECULE
*****
   23    24     0     0     0
SMALL
NO_CHARGES

@<TRIPOS>ATOM
      1 C1          0.5871   -0.9130   -3.3256 C.ar      1 <0>         0.0000
      2 C2          0.0412   -3.1297   -3.6445 C.ar      1 <0>         0.0000
      3 C3         -1.1149   -3.8694   -0.2913 C.2       1 <0>         0.0000
      4 C4         -0.2777   -2.1023   -1.4364 C.ar      1 <0>         0.0000
      5 C5          0.1858   -0.8914   -1.9867 C.ar      1 <0>         0.0000
      6 C6         -0.7380   -2.5426   -0.1396 C.2       1 <0>         0.0000
      7 C7         -0.3678   -3.2146   -2.3103 C.ar      1 <0>         0.0000
      8 C8         -0.6327   -1.7989    1.1292 C.2       1 <0>         0.0000
      9 C9          0.0805    0.4340   -1.2810 C.2       1 <0>         0.0000
     10 C10        -1.4447   -2.2822    2.3161 C.3       1 <0>         0.0000
     11 N1          0.5295   -1.9927   -4.1365 N.ar      1 <0>         0.0000
     12 N2         -0.8950   -4.2752   -1.5828 N.pl3     1 <0>         0.0000
     13 O1          0.1071   -0.8236    1.2138 O.2       1 <0>         0.0000
     14 O2         -0.9773    0.9198   -0.9585 O.2       1 <0>         0.0000
     15 O3          1.2460    1.1193   -1.1322 O.3       1 <0>         0.0000
     16 H1          0.9471    0.0014   -3.7939 H         1 <0>         0.0000
     17 H2         -0.0222   -3.9811   -4.3218 H         1 <0>         0.0000
     18 H3         -1.4999   -4.5639    0.4435 H         1 <0>         0.0000
     19 H4         -1.2540   -3.3398    2.5289 H         1 <0>         0.0000
     20 H5         -2.5142   -2.1750    2.1042 H         1 <0>         0.0000
     21 H6         -1.1873   -1.6869    3.1930 H         1 <0>         0.0000
     22 H7         -1.0537   -5.2090   -1.9362 H         1 <0>         0.0000
     23 H8          1.9910    0.5226   -1.3187 H         1 <0>         0.0000
@<TRIPOS>BOND
     1    1    5 ar
     2    1   11 ar
     3    1   16 1
     4    2    7 ar
     5    2   11 ar
     6    2   17 1
     7    3    6 2
     8    3   12 1
     9    3   18 1
    10    4    5 ar
    11    4    6 1
    12    4    7 ar
    13    5    9 1
    14    6    8 1
    15    7   12 1
    16    8   10 1
    17    8   13 2
    18    9   14 2
    19    9   15 1
    20   10   19 1
    21   10   20 1
    22   10   21 1
    23   12   22 1
    24   15   23 1
