@<TRIPOS>MOLECULE
*****
   28    28     0     0     0
SMALL
NO_CHARGES

@<TRIPOS>ATOM
      1 C1          3.3886   -1.1403   -1.4541 C.ar      1 <0>         0.0000
      2 C2          2.4974   -3.5299   -2.2940 C.ar      1 <0>         0.0000
      3 C3          2.2222   -1.7000   -0.9739 C.ar      1 <0>         0.0000
      4 C4          4.0671   -1.8889   -2.3940 C.ar      1 <0>         0.0000
      5 C5          1.4157   -0.9934    0.0303 C.2       1 <0>         0.0000
      6 C6          6.2290    0.1965   -4.4847 C.3       1 <0>         0.0000
      7 C7         -0.6005   -0.3099    1.8719 C.3       1 <0>         0.0000
      8 C8         -1.2905   -1.6370   -0.5398 C.3       1 <0>         0.0000
      9 C9          5.3396   -1.3660   -2.9713 C.3       1 <0>         0.0000
     10 N1          1.7454   -2.8973   -1.3733 N.ar      1 <0>         0.0000
     11 N2          3.6488   -3.0922   -2.8383 N.ar      1 <0>         0.0000
     12 O1          0.1505   -2.8146    1.3887 O.2       1 <0>         0.0000
     13 O2          5.0453   -0.3351   -3.9058 O.3       1 <0>         0.0000
     14 S1         -0.0691   -1.5498    0.7321 S.o       1 <0>         0.0000
     15 H1          3.7488   -0.1762   -1.1155 H         1 <0>         0.0000
     16 H2          2.1372   -4.4934   -2.6335 H         1 <0>         0.0000
     17 H3          1.7862   -0.0119    0.3717 H         1 <0>         0.0000
     18 H4          5.9661    0.9837   -5.1955 H         1 <0>         0.0000
     19 H5          6.7766   -0.6008   -4.9936 H         1 <0>         0.0000
     20 H6          6.8538    0.6171   -3.6932 H         1 <0>         0.0000
     21 H7         -1.5359   -0.6390    2.3273 H         1 <0>         0.0000
     22 H8          0.1724   -0.1870    2.6321 H         1 <0>         0.0000
     23 H9         -0.7491    0.6212    1.3232 H         1 <0>         0.0000
     24 H10        -2.2243   -1.9872   -0.0970 H         1 <0>         0.0000
     25 H11        -1.4185   -0.6397   -0.9633 H         1 <0>         0.0000
     26 H12        -0.9436   -2.3352   -1.3029 H         1 <0>         0.0000
     27 H13         5.9946   -0.9560   -2.1907 H         1 <0>         0.0000
     28 H14         5.8973   -2.1604   -3.4855 H         1 <0>         0.0000
@<TRIPOS>BOND
     1    1    3 ar
     2    1    4 ar
     3    1   15 1
     4    2   10 ar
     5    2   11 ar
     6    2   16 1
     7    3    5 1
     8    3   10 ar
     9    4    9 1
    10    4   11 ar
    11    5   14 2
    12    5   17 1
    13    6   13 1
    14    6   18 1
    15    6   19 1
    16    6   20 1
    17    7   14 1
    18    7   21 1
    19    7   22 1
    20    7   23 1
    21    8   14 1
    22    8   24 1
    23    8   25 1
    24    8   26 1
    25    9   13 1
    26    9   27 1
    27    9   28 1
    28   12   14 2
