@<TRIPOS>MOLECULE
*****
   16    15     0     0     0
SMALL
NO_CHARGES

@<TRIPOS>ATOM
      1 C1         -1.5608    0.5684    1.1131 C.2       1 <0>         0.0000
      2 C2          0.0694    0.2959   -0.5440 C.2       1 <0>         0.0000
      3 C3         -1.9467    0.0095    2.4509 C.3       1 <0>         0.0000
      4 C4          1.9466   -0.1921   -2.1464 C.3       1 <0>         0.0000
      5 C5          1.2951   -0.5463   -0.8209 C.3       1 <0>         0.0000
      6 O1         -2.1828    1.4579    0.5486 O.2       1 <0>         0.0000
      7 O2         -0.3685    1.1551   -1.2964 O.2       1 <0>         0.0000
      8 O3         -0.4405   -0.0760    0.6708 O.3       1 <0>         0.0000
      9 H1         -2.6292   -0.8336    2.3177 H         1 <0>         0.0000
     10 H2         -2.4567    0.7821    3.0336 H         1 <0>         0.0000
     11 H3         -1.0515   -0.3014    2.9956 H         1 <0>         0.0000
     12 H4          2.2578    0.8577   -2.1636 H         1 <0>         0.0000
     13 H5          1.2538   -0.3497   -2.9796 H         1 <0>         0.0000
     14 H6          2.8311   -0.8140   -2.3146 H         1 <0>         0.0000
     15 H7          0.9958   -1.5997   -0.8347 H         1 <0>         0.0000
     16 H8          2.0148   -0.3881   -0.0107 H         1 <0>         0.0000
@<TRIPOS>BOND
     1    1    3 1
     2    1    6 2
     3    1    8 1
     4    2    5 1
     5    2    7 2
     6    2    8 1
     7    3    9 1
     8    3   10 1
     9    3   11 1
    10    4    5 1
    11    4   12 1
    12    4   13 1
    13    4   14 1
    14    5   15 1
    15    5   16 1
