@<TRIPOS>MOLECULE
*****
   14    13     0     0     0
SMALL
NO_CHARGES

@<TRIPOS>ATOM
      1 C1          0.9458   -0.3379   -0.4377 C.3       1 <0>         0.0000
      2 C2          1.2182    1.7724   -1.7771 C.3       1 <0>         0.0000
      3 C3          1.1559    0.2529   -1.8240 C.3       1 <0>         0.0000
      4 O1          0.1064    0.3098   -4.2216 O.2       1 <0>         0.0000
      5 O2         -1.4026   -0.1190   -2.2358 O.2       1 <0>         0.0000
      6 S1         -0.1350   -0.2754   -2.9189 S.o2      1 <0>         0.0000
      7 Br1         0.1204   -2.3967   -3.1827 Br        1 <0>         0.0000
      8 H1          0.0200    0.0368    0.0107 H         1 <0>         0.0000
      9 H2          0.8896   -1.4314   -0.4752 H         1 <0>         0.0000
     10 H3          1.7746   -0.0735    0.2279 H         1 <0>         0.0000
     11 H4          0.2978    2.1887   -1.3550 H         1 <0>         0.0000
     12 H5          1.3579    2.1962   -2.7777 H         1 <0>         0.0000
     13 H6          2.0563    2.1086   -1.1573 H         1 <0>         0.0000
     14 H7          2.0868   -0.1373   -2.2495 H         1 <0>         0.0000
@<TRIPOS>BOND
     1    1    3 1
     2    1    8 1
     3    1    9 1
     4    1   10 1
     5    2    3 1
     6    2   11 1
     7    2   12 1
     8    2   13 1
     9    3    6 1
    10    3   14 1
    11    4    6 2
    12    5    6 2
    13    6    7 1
