@<TRIPOS>MOLECULE
*****
   31    33     0     0     0
SMALL
NO_CHARGES

@<TRIPOS>ATOM
      1 C1         -0.9895    0.2896   -0.4542 C.ar      1 <0>         0.0000
      2 C2        -11.4385    1.5060   -2.4222 C.ar      1 <0>         0.0000
      3 C3        -10.6051    2.5845   -2.1259 C.ar      1 <0>         0.0000
      4 C4         -0.7272    1.6356   -0.2421 C.ar      1 <0>         0.0000
      5 C5         -2.2832   -0.1365   -0.7660 C.ar      1 <0>         0.0000
      6 C6        -10.9163    0.2134   -2.4693 C.ar      1 <0>         0.0000
      7 C7         -9.2494    2.3705   -1.8769 C.ar      1 <0>         0.0000
      8 C8         -1.7484    2.5830   -0.3367 C.ar      1 <0>         0.0000
      9 C9         -3.3406    0.7995   -0.8693 C.ar      1 <0>         0.0000
     10 C10        -9.5606   -0.0006   -2.2204 C.ar      1 <0>         0.0000
     11 C11        -8.7271    1.0779   -1.9242 C.ar      1 <0>         0.0000
     12 C12        -4.7304    0.6083   -1.1728 C.2       1 <0>         0.0000
     13 C13        -3.0515    2.1501   -0.6513 C.ar      1 <0>         0.0000
     14 C14        -5.4435    1.7834   -1.1782 C.2       1 <0>         0.0000
     15 C15        -9.0242   -1.3936   -2.2783 C.3       1 <0>         0.0000
     16 N1         -7.3587    0.8812   -1.6713 N.2       1 <0>         0.0000
     17 N2         -6.7634    1.9736   -1.4222 N.2       1 <0>         0.0000
     18 O1         -5.3053   -0.5816   -1.4315 O.3       1 <0>         0.0000
     19 S1         -4.4607    3.1293   -0.8207 S.3       1 <0>         0.0000
     20 H1         -0.1861   -0.4377   -0.3780 H         1 <0>         0.0000
     21 H2        -12.4940    1.6725   -2.6166 H         1 <0>         0.0000
     22 H3        -11.0115    3.5911   -2.0905 H         1 <0>         0.0000
     23 H4          0.2824    1.9577   -0.0012 H         1 <0>         0.0000
     24 H5         -2.4712   -1.1949   -0.9294 H         1 <0>         0.0000
     25 H6        -11.5741   -0.6202   -2.7004 H         1 <0>         0.0000
     26 H7         -8.6083    3.2178   -1.6471 H         1 <0>         0.0000
     27 H8         -1.5334    3.6347   -0.1695 H         1 <0>         0.0000
     28 H9         -8.6852   -1.6278   -3.2939 H         1 <0>         0.0000
     29 H10        -8.1804   -1.5220   -1.5894 H         1 <0>         0.0000
     30 H11        -9.7885   -2.1247   -1.9871 H         1 <0>         0.0000
     31 H12        -4.6516   -1.3044   -1.3862 H         1 <0>         0.0000
@<TRIPOS>BOND
     1    1    4 ar
     2    1    5 ar
     3    1   20 1
     4    2    3 ar
     5    2    6 ar
     6    2   21 1
     7    3    7 ar
     8    3   22 1
     9    4    8 ar
    10    4   23 1
    11    5    9 ar
    12    5   24 1
    13    6   10 ar
    14    6   25 1
    15    7   11 ar
    16    7   26 1
    17    8   13 ar
    18    8   27 1
    19    9   12 1
    20    9   13 ar
    21   10   11 ar
    22   10   15 1
    23   11   16 1
    24   12   14 2
    25   12   18 1
    26   13   19 1
    27   14   17 1
    28   14   19 1
    29   15   28 1
    30   15   29 1
    31   15   30 1
    32   16   17 2
    33   18   31 1
