@<TRIPOS>MOLECULE
*****
   18    18     0     0     0
SMALL
NO_CHARGES

@<TRIPOS>ATOM
      1 C1          1.1818   -1.5339   -2.6659 C.2       1 <0>         0.0000
      2 C2         -1.6895   -0.2453   -1.3509 C.3       1 <0>         0.0000
      3 C3         -0.9779    0.7116   -0.4406 C.3       1 <0>         0.0000
      4 C4         -0.2827   -0.5363   -0.9089 C.3       1 <0>         0.0000
      5 C5          2.8604   -2.1235   -4.4090 C.3       1 <0>         0.0000
      6 N1          0.8229   -0.4745   -1.8367 N.am      1 <0>         0.0000
      7 N2          2.2799   -1.2060   -3.4571 N.am      1 <0>         0.0000
      8 O1          0.6042   -2.6197   -2.6975 O.2       1 <0>         0.0000
      9 H1         -2.4853   -0.8466   -0.9288 H         1 <0>         0.0000
     10 H2         -1.8555    0.0639   -2.3756 H         1 <0>         0.0000
     11 H3         -0.6675    1.6630   -0.8551 H         1 <0>         0.0000
     12 H4         -1.2950    0.7545    0.5941 H         1 <0>         0.0000
     13 H5         -0.1567   -1.3265   -0.1766 H         1 <0>         0.0000
     14 H6          3.6807   -2.6786   -3.9306 H         1 <0>         0.0000
     15 H7          2.0909   -2.8304   -4.7528 H         1 <0>         0.0000
     16 H8          3.2515   -1.5604   -5.2692 H         1 <0>         0.0000
     17 H9          1.3645    0.3828   -1.8865 H         1 <0>         0.0000
     18 H10         2.6635   -0.2680   -3.3963 H         1 <0>         0.0000
@<TRIPOS>BOND
     1    1    6 am
     2    1    7 am
     3    1    8 2
     4    2    3 1
     5    2    4 1
     6    2    9 1
     7    2   10 1
     8    3    4 1
     9    3   11 1
    10    3   12 1
    11    4    6 1
    12    4   13 1
    13    5    7 1
    14    5   14 1
    15    5   15 1
    16    5   16 1
    17    6   17 1
    18    7   18 1
