@<TRIPOS>MOLECULE
*****
    8     7     0     0     0
SMALL
NO_CHARGES

@<TRIPOS>ATOM
      1 C1          0.3867    0.0702    0.6697 C.3       1 <0>         0.0000
      2 C2         -0.3346   -0.0283   -0.6649 C.3       1 <0>         0.0000
      3 F1          0.5328   -1.1570    1.2295 F         1 <0>         0.0000
      4 F2          1.6386    0.5641    0.4828 F         1 <0>         0.0000
      5 F3         -1.5664   -0.5729   -0.4799 F         1 <0>         0.0000
      6 Cl1        -0.5019    1.5478   -1.4729 Cl        1 <0>         0.0000
      7 Br1        -0.5536    1.2427    1.9116 Br        1 <0>         0.0000
      8 Br2         0.6809   -1.2002   -1.8644 Br        1 <0>         0.0000
@<TRIPOS>BOND
     1    1    2 1
     2    1    3 1
     3    1    4 1
     4    1    7 1
     5    2    5 1
     6    2    6 1
     7    2    8 1
