@<TRIPOS>MOLECULE
*****
   65    69     0     0     0
SMALL
NO_CHARGES

@<TRIPOS>ATOM
      1 C1          1.2602    2.2230    4.9492 C.ar      1 <0>         0.0000
      2 C2          6.4427    0.0369    1.3542 C.ar      1 <0>         0.0000
      3 C3          2.6360    2.3046    4.7419 C.ar      1 <0>         0.0000
      4 C4          6.7131   -0.4572    0.0800 C.ar      1 <0>         0.0000
      5 C5          5.4887    2.0380    0.3900 C.ar      1 <0>         0.0000
      6 C6          0.7680    1.2585    5.8371 C.ar      1 <0>         0.0000
      7 C7          2.8735    0.4941    6.2951 C.ar      1 <0>         0.0000
      8 C8          5.8189    1.2823    1.5203 C.ar      1 <0>         0.0000
      9 C9          3.4754    1.4157    5.4299 C.ar      1 <0>         0.0000
     10 C10         6.3440    0.2793   -1.0535 C.ar      1 <0>         0.0000
     11 C11         5.7369    1.5403   -0.8859 C.ar      1 <0>         0.0000
     12 C12         6.7135    0.6480   -3.4314 C.2       1 <0>         0.0000
     13 C13         5.5138    1.8772    2.8613 C.2       1 <0>         0.0000
     14 C14         4.2043    2.8741   -2.2532 C.2       1 <0>         0.0000
     15 C15         6.4492    2.1158   -3.1106 C.3       1 <0>         0.0000
     16 C16         0.6808    6.2122   -6.8232 C.3       1 <0>         0.0000
     17 C17         2.0555    5.5847   -7.0920 C.3       1 <0>         0.0000
     18 C18        -0.1177    5.3800   -5.8100 C.3       1 <0>         0.0000
     19 C19         5.9545   -2.3699   -3.5629 C.3       1 <0>         0.0000
     20 C20         5.8014   -2.6327   -2.0844 C.3       1 <0>         0.0000
     21 C21         2.8393    5.3704   -5.7894 C.3       1 <0>         0.0000
     22 C22         0.6756    5.1662   -4.5139 C.3       1 <0>         0.0000
     23 C23         6.8162   -1.6255   -2.5776 C.3       1 <0>         0.0000
     24 C24         2.0445    4.5284   -4.7800 C.3       1 <0>         0.0000
     25 C25         4.9764    1.4324    5.2320 C.3       1 <0>         0.0000
     26 C26         3.9717    3.5898   -3.5852 C.3       1 <0>         0.0000
     27 N1          1.5519    0.4031    6.5060 N.ar      1 <0>         0.0000
     28 N2          6.5516   -0.2198   -2.3627 N.am      1 <0>         0.0000
     29 N3          5.4386    2.2698   -2.0689 N.am      1 <0>         0.0000
     30 N4          5.3874    0.9854    3.8996 N.am      1 <0>         0.0000
     31 N5          2.7705    4.3992   -3.5140 N.3       1 <0>         0.0000
     32 O1          7.0545    0.2863   -4.5487 O.2       1 <0>         0.0000
     33 O2          5.3958    3.0945    3.0196 O.2       1 <0>         0.0000
     34 O3          3.3306    2.8309   -1.3935 O.2       1 <0>         0.0000
     35 H1          0.5754    2.8933    4.4370 H         1 <0>         0.0000
     36 H2          6.7644   -0.5398    2.2166 H         1 <0>         0.0000
     37 H3          3.0633    3.0374    4.0626 H         1 <0>         0.0000
     38 H4          7.2072   -1.4143   -0.0368 H         1 <0>         0.0000
     39 H5          5.0263    3.0083    0.5190 H         1 <0>         0.0000
     40 H6         -0.3024    1.1712    6.0184 H         1 <0>         0.0000
     41 H7          3.4925   -0.2100    6.8531 H         1 <0>         0.0000
     42 H8          7.3921    2.5776   -2.7883 H         1 <0>         0.0000
     43 H9          6.1468    2.5889   -4.0390 H         1 <0>         0.0000
     44 H10         0.1190    6.3126   -7.7594 H         1 <0>         0.0000
     45 H11         0.8190    7.2276   -6.4271 H         1 <0>         0.0000
     46 H12         1.9189    4.6187   -7.5978 H         1 <0>         0.0000
     47 H13         2.6352    6.2148   -7.7764 H         1 <0>         0.0000
     48 H14        -1.0734    5.8675   -5.5850 H         1 <0>         0.0000
     49 H15        -0.3610    4.4051   -6.2545 H         1 <0>         0.0000
     50 H16         6.4454   -3.1098   -4.1864 H         1 <0>         0.0000
     51 H17         5.1755   -1.8024   -4.0595 H         1 <0>         0.0000
     52 H18         4.9177   -2.2413   -1.5902 H         1 <0>         0.0000
     53 H19         6.1806   -3.5624   -1.6706 H         1 <0>         0.0000
     54 H20         3.8007    4.8909   -6.0100 H         1 <0>         0.0000
     55 H21         3.0662    6.3369   -5.3206 H         1 <0>         0.0000
     56 H22         0.8370    6.1283   -4.0109 H         1 <0>         0.0000
     57 H23         0.1046    4.5363   -3.8195 H         1 <0>         0.0000
     58 H24         7.8688   -1.8963   -2.5344 H         1 <0>         0.0000
     59 H25         1.8728    3.5323   -5.2380 H         1 <0>         0.0000
     60 H26         5.3680    2.4436    5.3550 H         1 <0>         0.0000
     61 H27         5.4596    0.7889    5.9736 H         1 <0>         0.0000
     62 H28         3.9143    2.8102   -4.3698 H         1 <0>         0.0000
     63 H29         4.8406    4.2130   -3.8281 H         1 <0>         0.0000
     64 H30         5.1908    0.0211    3.6634 H         1 <0>         0.0000
     65 H31         2.1681    4.0076   -2.7915 H         1 <0>         0.0000
@<TRIPOS>BOND
     1    1    3 ar
     2    1    6 ar
     3    1   35 1
     4    2    4 ar
     5    2    8 ar
     6    2   36 1
     7    3    9 ar
     8    3   37 1
     9    4   10 ar
    10    4   38 1
    11    5    8 ar
    12    5   11 ar
    13    5   39 1
    14    6   27 ar
    15    6   40 1
    16    7    9 ar
    17    7   27 ar
    18    7   41 1
    19    8   13 1
    20    9   25 1
    21   10   11 ar
    22   10   28 1
    23   11   29 1
    24   12   15 1
    25   12   28 am
    26   12   32 2
    27   13   30 am
    28   13   33 2
    29   14   26 1
    30   14   29 am
    31   14   34 2
    32   15   29 1
    33   15   42 1
    34   15   43 1
    35   16   18 1
    36   16   17 1
    37   16   44 1
    38   16   45 1
    39   17   21 1
    40   17   46 1
    41   17   47 1
    42   18   22 1
    43   18   48 1
    44   18   49 1
    45   19   20 1
    46   19   23 1
    47   19   50 1
    48   19   51 1
    49   20   23 1
    50   20   52 1
    51   20   53 1
    52   21   24 1
    53   21   54 1
    54   21   55 1
    55   22   24 1
    56   22   56 1
    57   22   57 1
    58   23   28 1
    59   23   58 1
    60   24   31 1
    61   24   59 1
    62   25   30 1
    63   25   60 1
    64   25   61 1
    65   26   31 1
    66   26   62 1
    67   26   63 1
    68   30   64 1
    69   31   65 1
