@<TRIPOS>MOLECULE
*****
   61    65     0     0     0
SMALL
NO_CHARGES

@<TRIPOS>ATOM
      1 C1         -2.9708    7.8992   -0.0309 C.ar      1 <0>         0.0000
      2 C2         -3.6829    9.0690    0.2518 C.ar      1 <0>         0.0000
      3 C3         -6.0208    1.5343    2.8153 C.ar      1 <0>         0.0000
      4 C4         -4.7576    1.3619    2.2598 C.ar      1 <0>         0.0000
      5 C5         -2.8930    6.8798    0.9219 C.ar      1 <0>         0.0000
      6 C6         -4.3122    9.2234    1.4913 C.ar      1 <0>         0.0000
      7 C7         -6.3916    2.7817    3.3747 C.ar      1 <0>         0.0000
      8 C8         -3.8989    2.4736    2.2834 C.ar      1 <0>         0.0000
      9 C9          0.2715    0.4395   -0.0685 C.ar      1 <0>         0.0000
     10 C10        -3.5116    7.0098    2.1734 C.ar      1 <0>         0.0000
     11 C11        -4.2060    8.1956    2.4206 C.ar      1 <0>         0.0000
     12 C12        -2.5734    2.8142    1.8559 C.2       1 <0>         0.0000
     13 C13         0.3289    1.8227   -0.1176 C.ar      1 <0>         0.0000
     14 C14        -4.3954    3.6668    2.8698 C.ar      1 <0>         0.0000
     15 C15        -0.8638   -0.0759    0.6002 C.ar      1 <0>         0.0000
     16 C16        -1.5970    1.9769    1.1515 C.ar      1 <0>         0.0000
     17 C17         0.2259   -1.9343   -0.2103 C.2       1 <0>         0.0000
     18 C18         1.4027    2.5923   -0.8562 C.2       1 <0>         0.0000
     19 C19         1.0928   -0.7151   -0.6103 C.3       1 <0>         0.0000
     20 C20         2.4573   -0.8571    0.1006 C.3       1 <0>         0.0000
     21 C21         1.2665   -0.6910   -2.1396 C.3       1 <0>         0.0000
     22 C22         0.6446    5.9261    1.3900 C.3       1 <0>         0.0000
     23 C23        -3.4064    5.9634    3.2679 C.3       1 <0>         0.0000
     24 C24         1.8818    4.7851   -1.8733 C.3       1 <0>         0.0000
     25 C25         2.3205    5.8442   -0.8589 C.3       1 <0>         0.0000
     26 N1         -5.6019    3.8571    3.4152 N.ar      1 <0>         0.0000
     27 N2         -2.2923    4.0806    2.1727 N.2       1 <0>         0.0000
     28 N3         -0.6051    2.5851    0.4980 N.ar      1 <0>         0.0000
     29 N4         -1.7991    0.6356    1.2098 N.ar      1 <0>         0.0000
     30 N5         -3.3859    4.5943    2.7807 N.pl3     1 <0>         0.0000
     31 N6         -0.8685   -1.4564    0.5156 N.am      1 <0>         0.0000
     32 N7          0.9878    3.8071   -1.2845 N.am      1 <0>         0.0000
     33 O1          0.4404   -3.1057   -0.4542 O.2       1 <0>         0.0000
     34 O2          2.5344    2.1314   -1.0400 O.2       1 <0>         0.0000
     35 O3         -0.3457    6.3452   -1.0854 O.2       1 <0>         0.0000
     36 F1         -4.8049    8.3594    3.6365 F         1 <0>         0.0000
     37 S1          0.8350    6.7885   -0.2137 S.o       1 <0>         0.0000
     38 H1         -2.4527    7.7662   -0.9750 H         1 <0>         0.0000
     39 H2         -3.7483    9.8647   -0.4855 H         1 <0>         0.0000
     40 H3         -6.7368    0.7182    2.8322 H         1 <0>         0.0000
     41 H4         -4.4368    0.4179    1.8328 H         1 <0>         0.0000
     42 H5         -2.3404    5.9785    0.6826 H         1 <0>         0.0000
     43 H6         -4.8726   10.1178    1.7464 H         1 <0>         0.0000
     44 H7         -7.3816    2.9024    3.8109 H         1 <0>         0.0000
     45 H8          2.9308   -1.7917   -0.2130 H         1 <0>         0.0000
     46 H9          2.3346   -0.8801    1.1885 H         1 <0>         0.0000
     47 H10         3.0889   -0.0088   -0.1648 H         1 <0>         0.0000
     48 H11         1.7062   -1.6366   -2.4681 H         1 <0>         0.0000
     49 H12         1.9273    0.1307   -2.4211 H         1 <0>         0.0000
     50 H13         0.3046   -0.5632   -2.6465 H         1 <0>         0.0000
     51 H14        -0.1901    6.4089    1.9000 H         1 <0>         0.0000
     52 H15         1.5612    6.0525    1.9737 H         1 <0>         0.0000
     53 H16         0.4067    4.8730    1.2286 H         1 <0>         0.0000
     54 H17        -2.4951    6.1186    3.8550 H         1 <0>         0.0000
     55 H18        -4.2573    6.0388    3.9451 H         1 <0>         0.0000
     56 H19         2.7639    4.2634   -2.2506 H         1 <0>         0.0000
     57 H20         1.3672    5.2655   -2.7080 H         1 <0>         0.0000
     58 H21         2.9701    6.5833   -1.3374 H         1 <0>         0.0000
     59 H22         2.8502    5.3974   -0.0141 H         1 <0>         0.0000
     60 H23        -1.5885   -2.0536    0.9062 H         1 <0>         0.0000
     61 H24         0.0544    4.1295   -1.0378 H         1 <0>         0.0000
@<TRIPOS>BOND
     1    1    2 ar
     2    1    5 ar
     3    1   38 1
     4    2    6 ar
     5    2   39 1
     6    3    4 ar
     7    3    7 ar
     8    3   40 1
     9    4    8 ar
    10    4   41 1
    11    5   10 ar
    12    5   42 1
    13    6   11 ar
    14    6   43 1
    15    7   26 ar
    16    7   44 1
    17    8   12 1
    18    8   14 ar
    19    9   13 ar
    20    9   15 ar
    21    9   19 1
    22   10   11 ar
    23   10   23 1
    24   11   36 1
    25   12   16 1
    26   12   27 2
    27   13   18 1
    28   13   28 ar
    29   14   26 ar
    30   14   30 1
    31   15   29 ar
    32   15   31 1
    33   16   28 ar
    34   16   29 ar
    35   17   19 1
    36   17   31 am
    37   17   33 2
    38   18   32 am
    39   18   34 2
    40   19   20 1
    41   19   21 1
    42   20   45 1
    43   20   46 1
    44   20   47 1
    45   21   48 1
    46   21   49 1
    47   21   50 1
    48   22   37 1
    49   22   51 1
    50   22   52 1
    51   22   53 1
    52   23   30 1
    53   23   54 1
    54   23   55 1
    55   24   25 1
    56   24   32 1
    57   24   56 1
    58   24   57 1
    59   25   37 1
    60   25   58 1
    61   25   59 1
    62   27   30 1
    63   31   60 1
    64   32   61 1
    65   35   37 2
