@<TRIPOS>MOLECULE
*****
   66    70     0     0     0
SMALL
NO_CHARGES

@<TRIPOS>ATOM
      1 C1         -4.3060    2.9331    4.4030 C.ar      1 <0>         0.0000
      2 C2         -3.9862    1.3308    6.1743 C.ar      1 <0>         0.0000
      3 C3         -0.6103    0.1895    0.9743 C.ar      1 <0>         0.0000
      4 C4         -4.6380   -1.3330   -0.5505 C.ar      1 <0>         0.0000
      5 C5         -6.5199   -2.0050    0.8046 C.ar      1 <0>         0.0000
      6 C6         -1.5877   -0.7791    1.1552 C.ar      1 <0>         0.0000
      7 C7         -4.5739    3.9341    5.3417 C.ar      1 <0>         0.0000
      8 C8         -4.2540    2.3147    7.1185 C.ar      1 <0>         0.0000
      9 C9         -5.4991   -0.8196   -1.5222 C.ar      1 <0>         0.0000
     10 C10        -7.4000   -1.5035   -0.1596 C.ar      1 <0>         0.0000
     11 C11        -1.5410    1.6013    2.7126 C.ar      1 <0>         0.0000
     12 C12        -2.5613    0.6475    2.9015 C.ar      1 <0>         0.0000
     13 C13        -4.0163    1.6167    4.7934 C.ar      1 <0>         0.0000
     14 C14        -3.6937    0.5897    3.7797 C.2       1 <0>         0.0000
     15 C15        -5.1321   -1.9232    0.6225 C.ar      1 <0>         0.0000
     16 C16        -0.5722    1.3855    1.7399 C.ar      1 <0>         0.0000
     17 C17        -2.5752   -0.5424    2.1264 C.ar      1 <0>         0.0000
     18 C18        -4.5496    3.6267    6.7105 C.ar      1 <0>         0.0000
     19 C19        -6.8700   -0.9160   -1.3033 C.ar      1 <0>         0.0000
     20 C20        -4.3557   -0.6069    3.5070 C.2       1 <0>         0.0000
     21 C21        -5.5904   -1.1486    4.1142 C.2       1 <0>         0.0000
     22 C22        -2.8389    1.8712   -3.3913 C.3       1 <0>         0.0000
     23 C23        -2.2791    0.8216   -2.4540 C.3       1 <0>         0.0000
     24 C24        -1.4395    2.0193   -2.8299 C.3       1 <0>         0.0000
     25 C25        -5.3412    6.6410    8.6478 C.3       1 <0>         0.0000
     26 C26         0.4607    2.4440    1.4227 C.3       1 <0>         0.0000
     27 C27        -4.1806   -2.4154    1.6970 C.3       1 <0>         0.0000
     28 C28        -1.1782    3.0639   -1.7780 C.3       1 <0>         0.0000
     29 C29        -5.1114    5.8731    7.3580 C.3       1 <0>         0.0000
     30 C30        -0.0111    3.3626    0.2897 C.3       1 <0>         0.0000
     31 N1         -3.6555   -1.3108    2.5181 N.pl3     1 <0>         0.0000
     32 O1         -5.9614   -2.3048    3.9965 O.2       1 <0>         0.0000
     33 O2         -6.3499   -0.2815    4.8304 O.3       1 <0>         0.0000
     34 O3         -4.7960    4.5196    7.7114 O.3       1 <0>         0.0000
     35 O4         -0.1825    2.5776   -0.8827 O.3       1 <0>         0.0000
     36 F1         -7.7201   -0.4212   -2.2424 F         1 <0>         0.0000
     37 H1         -4.3355    3.1752    3.3439 H         1 <0>         0.0000
     38 H2         -3.7487    0.3228    6.5032 H         1 <0>         0.0000
     39 H3          0.1444    0.0418    0.2080 H         1 <0>         0.0000
     40 H4         -3.5675   -1.2643   -0.7116 H         1 <0>         0.0000
     41 H5         -6.9150   -2.4550    1.7101 H         1 <0>         0.0000
     42 H6         -1.5742   -1.6851    0.5574 H         1 <0>         0.0000
     43 H7         -4.8028    4.9353    4.9953 H         1 <0>         0.0000
     44 H8         -4.2344    2.0922    8.1812 H         1 <0>         0.0000
     45 H9         -5.1208   -0.3540   -2.4271 H         1 <0>         0.0000
     46 H10        -8.4766   -1.5609   -0.0315 H         1 <0>         0.0000
     47 H11        -1.5263    2.5051    3.3179 H         1 <0>         0.0000
     48 H12        -2.9406    1.6223   -4.4435 H         1 <0>         0.0000
     49 H13        -3.6146    2.5307   -3.0108 H         1 <0>         0.0000
     50 H14        -2.6558    0.7914   -1.4366 H         1 <0>         0.0000
     51 H15        -2.0075   -0.1463   -2.8660 H         1 <0>         0.0000
     52 H16        -0.6159    1.8436   -3.5176 H         1 <0>         0.0000
     53 H17        -6.1688    6.2049    9.2144 H         1 <0>         0.0000
     54 H18        -4.4443    6.6221    9.2735 H         1 <0>         0.0000
     55 H19        -5.5858    7.6838    8.4217 H         1 <0>         0.0000
     56 H20         0.6629    3.0620    2.3049 H         1 <0>         0.0000
     57 H21         1.4084    1.9819    1.1259 H         1 <0>         0.0000
     58 H22        -4.6733   -3.1233    2.3580 H         1 <0>         0.0000
     59 H23        -3.3160   -2.9119    1.2515 H         1 <0>         0.0000
     60 H24        -2.1067    3.2670   -1.2212 H         1 <0>         0.0000
     61 H25        -0.8517    4.0110   -2.2373 H         1 <0>         0.0000
     62 H26        -4.2808    6.3069    6.7856 H         1 <0>         0.0000
     63 H27        -6.0098    5.8883    6.7269 H         1 <0>         0.0000
     64 H28        -0.9646    3.8303    0.5773 H         1 <0>         0.0000
     65 H29         0.7199    4.1664    0.1096 H         1 <0>         0.0000
     66 H30        -5.9330    0.6015    4.8620 H         1 <0>         0.0000
@<TRIPOS>BOND
     1    1    7 ar
     2    1   13 ar
     3    1   37 1
     4    2    8 ar
     5    2   13 ar
     6    2   38 1
     7    3    6 ar
     8    3   16 ar
     9    3   39 1
    10    4    9 ar
    11    4   15 ar
    12    4   40 1
    13    5   10 ar
    14    5   15 ar
    15    5   41 1
    16    6   17 ar
    17    6   42 1
    18    7   18 ar
    19    7   43 1
    20    8   18 ar
    21    8   44 1
    22    9   19 ar
    23    9   45 1
    24   10   19 ar
    25   10   46 1
    26   11   12 ar
    27   11   16 ar
    28   11   47 1
    29   12   14 1
    30   12   17 ar
    31   13   14 1
    32   14   20 2
    33   15   27 1
    34   16   26 1
    35   17   31 1
    36   18   34 1
    37   19   36 1
    38   20   21 1
    39   20   31 1
    40   21   32 2
    41   21   33 1
    42   22   23 1
    43   22   24 1
    44   22   48 1
    45   22   49 1
    46   23   24 1
    47   23   50 1
    48   23   51 1
    49   24   28 1
    50   24   52 1
    51   25   29 1
    52   25   53 1
    53   25   54 1
    54   25   55 1
    55   26   30 1
    56   26   56 1
    57   26   57 1
    58   27   31 1
    59   27   58 1
    60   27   59 1
    61   28   35 1
    62   28   60 1
    63   28   61 1
    64   29   34 1
    65   29   62 1
    66   29   63 1
    67   30   35 1
    68   30   64 1
    69   30   65 1
    70   33   66 1
