@<TRIPOS>MOLECULE
*****
   54    58     0     0     0
SMALL
NO_CHARGES

@<TRIPOS>ATOM
      1 C1         -6.9623   -2.3960    5.0124 C.ar      1 <0>         0.0000
      2 C2         -5.8897   -3.1635    3.0055 C.ar      1 <0>         0.0000
      3 C3         -6.6867   -3.6089    5.6343 C.ar      1 <0>         0.0000
      4 C4         -5.5998   -4.3912    3.6130 C.ar      1 <0>         0.0000
      5 C5         -6.5707   -2.1515    3.6864 C.ar      1 <0>         0.0000
      6 C6         -5.9989   -4.6153    4.9370 C.ar      1 <0>         0.0000
      7 C7         -2.5628   -1.3710    3.4701 C.2       1 <0>         0.0000
      8 C8         -3.8269   -0.4730    1.8369 C.2       1 <0>         0.0000
      9 C9         -0.9809   -0.1339    0.6924 C.2       1 <0>         0.0000
     10 C10        -1.4245   -2.1311    4.0699 C.3       1 <0>         0.0000
     11 C11        -0.1984   -2.0868    3.1417 C.3       1 <0>         0.0000
     12 C12        -0.5958   -2.4408    1.7005 C.3       1 <0>         0.0000
     13 C13        -7.4127   -0.7334    1.6787 C.3       1 <0>         0.0000
     14 C14        -8.1832   -0.2581    2.8935 C.3       1 <0>         0.0000
     15 C15        -2.0555   -0.1788   -1.6596 C.3       1 <0>         0.0000
     16 C16        -0.7509    1.4902   -1.2005 C.3       1 <0>         0.0000
     17 C17        -1.6339   -1.4652    1.1107 C.3       1 <0>         0.0000
     18 C18        -1.7914    1.1998   -2.3038 C.3       1 <0>         0.0000
     19 C19        -6.7826   -0.8100    3.0507 C.3       1 <0>         0.0000
     20 C20        -5.0835   -6.8251    4.9647 C.3       1 <0>         0.0000
     21 C21        -5.6943    0.2106    3.3755 C.3       1 <0>         0.0000
     22 N1         -3.5852   -0.8545    4.0900 N.2       1 <0>         0.0000
     23 N2         -2.6621   -1.1947    2.1032 N.am      1 <0>         0.0000
     24 N3         -4.3617   -0.2870    3.0845 N.am      1 <0>         0.0000
     25 N4         -1.0378    0.1604   -0.6300 N.am      1 <0>         0.0000
     26 O1         -4.2380   -0.1002    0.7307 O.2       1 <0>         0.0000
     27 O2         -0.4087    0.5895    1.5096 O.2       1 <0>         0.0000
     28 O3         -5.7720   -5.7751    5.6330 O.3       1 <0>         0.0000
     29 F1         -1.2415    1.1225   -3.5826 F         1 <0>         0.0000
     30 H1         -7.4905   -1.6214    5.5639 H         1 <0>         0.0000
     31 H2         -5.5766   -2.9924    1.9783 H         1 <0>         0.0000
     32 H3         -6.9916   -3.8022    6.6588 H         1 <0>         0.0000
     33 H4         -5.0738   -5.1530    3.0480 H         1 <0>         0.0000
     34 H5         -1.2023   -1.7219    5.0583 H         1 <0>         0.0000
     35 H6         -1.7430   -3.1715    4.2169 H         1 <0>         0.0000
     36 H7          0.2473   -1.0898    3.1597 H         1 <0>         0.0000
     37 H8          0.5532   -2.7989    3.4969 H         1 <0>         0.0000
     38 H9          0.2823   -2.4484    1.0482 H         1 <0>         0.0000
     39 H10        -1.0257   -3.4499    1.6759 H         1 <0>         0.0000
     40 H11        -7.7282   -1.6658    1.2207 H         1 <0>         0.0000
     41 H12        -7.0191    0.0031    0.9859 H         1 <0>         0.0000
     42 H13        -8.3302    0.8115    3.0229 H         1 <0>         0.0000
     43 H14        -9.0061   -0.8726    3.2458 H         1 <0>         0.0000
     44 H15        -3.0563   -0.3161   -1.2443 H         1 <0>         0.0000
     45 H16        -1.7658   -1.0153   -2.3028 H         1 <0>         0.0000
     46 H17         0.2713    1.5977   -1.5743 H         1 <0>         0.0000
     47 H18        -0.9867    2.3070   -0.5130 H         1 <0>         0.0000
     48 H19        -2.1175   -1.9258    0.2460 H         1 <0>         0.0000
     49 H20        -2.6473    1.8744   -2.3505 H         1 <0>         0.0000
     50 H21        -5.0106   -7.6417    5.6846 H         1 <0>         0.0000
     51 H22        -4.0741   -6.5159    4.6645 H         1 <0>         0.0000
     52 H23        -5.6359   -7.1691    4.0811 H         1 <0>         0.0000
     53 H24        -5.6989    0.4581    4.4396 H         1 <0>         0.0000
     54 H25        -5.8519    1.1285    2.8012 H         1 <0>         0.0000
@<TRIPOS>BOND
     1    1    3 ar
     2    1    5 ar
     3    1   30 1
     4    2    4 ar
     5    2    5 ar
     6    2   31 1
     7    3    6 ar
     8    3   32 1
     9    4    6 ar
    10    4   33 1
    11    5   19 1
    12    6   28 1
    13    7   10 1
    14    7   22 2
    15    7   23 1
    16    8   23 am
    17    8   24 am
    18    8   26 2
    19    9   17 1
    20    9   25 am
    21    9   27 2
    22   10   11 1
    23   10   34 1
    24   10   35 1
    25   11   12 1
    26   11   36 1
    27   11   37 1
    28   12   17 1
    29   12   38 1
    30   12   39 1
    31   13   14 1
    32   13   19 1
    33   13   40 1
    34   13   41 1
    35   14   19 1
    36   14   42 1
    37   14   43 1
    38   15   18 1
    39   15   25 1
    40   15   44 1
    41   15   45 1
    42   16   18 1
    43   16   25 1
    44   16   46 1
    45   16   47 1
    46   17   23 1
    47   17   48 1
    48   18   29 1
    49   18   49 1
    50   19   21 1
    51   20   28 1
    52   20   50 1
    53   20   51 1
    54   20   52 1
    55   21   24 1
    56   21   53 1
    57   21   54 1
    58   22   24 1
