@<TRIPOS>MOLECULE
*****
   67    70     0     0     0
SMALL
NO_CHARGES

@<TRIPOS>ATOM
      1 C1          2.6254    0.4318    0.5053 C.ar      1 <0>         0.0000
      2 C2          2.6838    2.8230   -0.0549 C.ar      1 <0>         0.0000
      3 C3          0.6315    1.5161   -0.1947 C.ar      1 <0>         0.0000
      4 C4          1.2689    0.3435    0.2141 C.ar      1 <0>         0.0000
      5 C5         -0.7322    1.7021   -0.5436 C.2       1 <0>         0.0000
      6 C6          3.3311    1.6626    0.3843 C.ar      1 <0>         0.0000
      7 C7          1.3151    2.7406   -0.3482 C.ar      1 <0>         0.0000
      8 C8         -0.8791    3.0237   -0.9130 C.2       1 <0>         0.0000
      9 C9          0.3838   -5.4673   -1.7647 C.2       1 <0>         0.0000
     10 C10        -1.6752    0.5571   -0.3518 C.3       1 <0>         0.0000
     11 C11         1.2261   -2.1542   -0.2385 C.3       1 <0>         0.0000
     12 C12        -0.9998   -3.2665   -0.1212 C.3       1 <0>         0.0000
     13 C13         0.4219   -0.9232    0.2649 C.3       1 <0>         0.0000
     14 C14         0.3195   -3.2062   -0.8822 C.3       1 <0>         0.0000
     15 C15        -0.8803   -0.7495   -0.5676 C.3       1 <0>         0.0000
     16 C16         4.7992    1.7001    0.7446 C.3       1 <0>         0.0000
     17 C17        -5.0102   -2.7761    1.6532 C.3       1 <0>         0.0000
     18 C18        -0.4301   -8.6029   -2.1968 C.3       1 <0>         0.0000
     19 C19         3.5801   -6.5243   -1.8490 C.3       1 <0>         0.0000
     20 C20        -2.0765    4.0652   -3.1878 C.3       1 <0>         0.0000
     21 C21        -3.8092   -3.0698    0.7441 C.3       1 <0>         0.0000
     22 C22         0.5335   -7.6240   -2.8706 C.3       1 <0>         0.0000
     23 C23         2.2785   -6.9763   -1.1760 C.3       1 <0>         0.0000
     24 C24        -2.8928   -1.8488    0.6682 C.3       1 <0>         0.0000
     25 N1          0.3737    3.6492   -0.7993 N.pl3     1 <0>         0.0000
     26 N2          0.9310   -4.5280   -0.8671 N.am      1 <0>         0.0000
     27 N3          1.0758   -6.6252   -1.9362 N.am      1 <0>         0.0000
     28 N4         -1.7931   -1.9962   -0.3658 N.4       1 <0>         0.0000
     29 O1         -0.6962   -5.2213   -2.3239 O.2       1 <0>         0.0000
     30 S1         -2.3310    3.9015   -1.3722 S.3       1 <0>         0.0000
     31 H1          3.1819   -0.4447    0.8301 H         1 <0>         0.0000
     32 H2          3.2372    3.7525   -0.1595 H         1 <0>         0.0000
     33 H3         -2.0719    0.5963    0.6679 H         1 <0>         0.0000
     34 H4         -2.5265    0.6094   -1.0401 H         1 <0>         0.0000
     35 H5          1.9776   -1.8270   -0.9617 H         1 <0>         0.0000
     36 H6          1.7583   -2.5979    0.6092 H         1 <0>         0.0000
     37 H7         -1.6010   -4.1023   -0.4683 H         1 <0>         0.0000
     38 H8         -0.8284   -3.3496    0.9537 H         1 <0>         0.0000
     39 H9          0.1233   -1.0959    1.3080 H         1 <0>         0.0000
     40 H10         0.0959   -2.9284   -1.9200 H         1 <0>         0.0000
     41 H11        -0.6062   -0.7891   -1.6247 H         1 <0>         0.0000
     42 H12         5.3524    0.8983    0.2442 H         1 <0>         0.0000
     43 H13         5.2581    2.6506    0.4621 H         1 <0>         0.0000
     44 H14         4.9417    1.5697    1.8235 H         1 <0>         0.0000
     45 H15        -4.6886   -2.5244    2.6690 H         1 <0>         0.0000
     46 H16        -5.6094   -1.9438    1.2706 H         1 <0>         0.0000
     47 H17        -5.6586   -3.6532    1.7177 H         1 <0>         0.0000
     48 H18         0.0534   -9.1418   -1.3751 H         1 <0>         0.0000
     49 H19        -1.2975   -8.0682   -1.8005 H         1 <0>         0.0000
     50 H20        -0.7840   -9.3431   -2.9215 H         1 <0>         0.0000
     51 H21         3.6706   -6.9574   -2.8494 H         1 <0>         0.0000
     52 H22         3.6263   -5.4348   -1.9586 H         1 <0>         0.0000
     53 H23         4.4459   -6.8424   -1.2597 H         1 <0>         0.0000
     54 H24        -2.9511    4.5952   -3.5724 H         1 <0>         0.0000
     55 H25        -2.0101    3.0819   -3.6572 H         1 <0>         0.0000
     56 H26        -1.1810    4.6485   -3.4087 H         1 <0>         0.0000
     57 H27        -4.1632   -3.3273   -0.2626 H         1 <0>         0.0000
     58 H28        -3.2687   -3.9398    1.1253 H         1 <0>         0.0000
     59 H29         0.0277   -7.0904   -3.6759 H         1 <0>         0.0000
     60 H30         1.3844   -8.1556   -3.3078 H         1 <0>         0.0000
     61 H31         2.1977   -6.5740   -0.1616 H         1 <0>         0.0000
     62 H32         2.2842   -8.0639   -1.0632 H         1 <0>         0.0000
     63 H33        -3.4776   -0.9736    0.3908 H         1 <0>         0.0000
     64 H34        -2.4032   -1.6498    1.6242 H         1 <0>         0.0000
     65 H35         0.5112    4.6444   -0.9184 H         1 <0>         0.0000
     66 H36         1.9390   -4.5217   -0.7706 H         1 <0>         0.0000
     67 H37        -2.2666   -2.1329   -1.2641 H         1 <0>         0.0000
@<TRIPOS>BOND
     1    1    4 ar
     2    1    6 ar
     3    1   31 1
     4    2    6 ar
     5    2    7 ar
     6    2   32 1
     7    3    4 ar
     8    3    5 1
     9    3    7 ar
    10    4   13 1
    11    5    8 2
    12    5   10 1
    13    6   16 1
    14    7   25 1
    15    8   25 1
    16    8   30 1
    17    9   26 am
    18    9   27 am
    19    9   29 2
    20   10   15 1
    21   10   33 1
    22   10   34 1
    23   11   13 1
    24   11   14 1
    25   11   35 1
    26   11   36 1
    27   12   14 1
    28   12   28 1
    29   12   37 1
    30   12   38 1
    31   13   15 1
    32   13   39 1
    33   14   26 1
    34   14   40 1
    35   15   28 1
    36   15   41 1
    37   16   42 1
    38   16   43 1
    39   16   44 1
    40   17   21 1
    41   17   45 1
    42   17   46 1
    43   17   47 1
    44   18   22 1
    45   18   48 1
    46   18   49 1
    47   18   50 1
    48   19   23 1
    49   19   51 1
    50   19   52 1
    51   19   53 1
    52   20   30 1
    53   20   54 1
    54   20   55 1
    55   20   56 1
    56   21   24 1
    57   21   57 1
    58   21   58 1
    59   22   27 1
    60   22   59 1
    61   22   60 1
    62   23   27 1
    63   23   61 1
    64   23   62 1
    65   24   28 1
    66   24   63 1
    67   24   64 1
    68   25   65 1
    69   26   66 1
    70   28   67 1
