@<TRIPOS>MOLECULE
*****
   67    71     0     0     0
SMALL
NO_CHARGES

@<TRIPOS>ATOM
      1 C1          2.5036    0.9850    1.6537 C.1       1 <0>         0.0000
      2 C2          3.1824    1.9877    1.5244 C.1       1 <0>         0.0000
      3 C3         -3.2942   -6.8242    3.6687 C.ar      1 <0>         0.0000
      4 C4         -2.8574   -8.0531    3.1649 C.ar      1 <0>         0.0000
      5 C5          0.5184   -0.3488    1.0407 C.ar      1 <0>         0.0000
      6 C6         -2.4549   -5.7118    3.5788 C.ar      1 <0>         0.0000
      7 C7         -1.6035   -8.1507    2.5543 C.ar      1 <0>         0.0000
      8 C8         -0.2636   -1.4836    1.1600 C.ar      1 <0>         0.0000
      9 C9          2.0871   -1.2108    2.6806 C.ar      1 <0>         0.0000
     10 C10         1.7120   -0.1908    1.7985 C.ar      1 <0>         0.0000
     11 C11         1.2958   -2.3619    2.8032 C.ar      1 <0>         0.0000
     12 C12        -1.1815   -5.8204    3.0058 C.ar      1 <0>         0.0000
     13 C13        -0.7483   -7.0441    2.4560 C.ar      1 <0>         0.0000
     14 C14         0.1124   -2.5148    2.0452 C.ar      1 <0>         0.0000
     15 C15         1.6724   -3.4128    3.7432 C.2       1 <0>         0.0000
     16 C16        -0.3268   -4.5972    2.9371 C.2       1 <0>         0.0000
     17 C17         0.8704   -5.7938    8.6263 C.3       1 <0>         0.0000
     18 C18         4.0991    3.8048   -0.0336 C.3       1 <0>         0.0000
     19 C19         3.2881    4.5004    1.0215 C.3       1 <0>         0.0000
     20 C20         1.2190   -6.2201    7.1955 C.3       1 <0>         0.0000
     21 C21        -0.5920   -5.3748    8.7516 C.3       1 <0>         0.0000
     22 C22        -0.6325   -4.7494    6.3454 C.3       1 <0>         0.0000
     23 C23         3.9749    3.1756    1.3545 C.3       1 <0>         0.0000
     24 C24         0.8409   -5.1216    6.1950 C.3       1 <0>         0.0000
     25 C25         0.5786   -7.1546    1.7408 C.3       1 <0>         0.0000
     26 C26        -3.4206   -4.6027    7.5128 C.3       1 <0>         0.0000
     27 C27        -2.3666   -2.2981    7.2591 C.3       1 <0>         0.0000
     28 C28         1.1344   -5.5615    4.7517 C.3       1 <0>         0.0000
     29 C29        -2.3070   -3.6574    7.9544 C.3       1 <0>         0.0000
     30 N1         -0.6819   -3.6469    2.1333 N.2       1 <0>         0.0000
     31 N2          0.8045   -4.5283    3.7606 N.am      1 <0>         0.0000
     32 N3         -0.9142   -4.2797    7.7552 N.4       1 <0>         0.0000
     33 O1          2.6368   -3.3754    4.5105 O.2       1 <0>         0.0000
     34 H1         -4.2861   -6.7293    4.1023 H         1 <0>         0.0000
     35 H2         -3.5015   -8.9264    3.2198 H         1 <0>         0.0000
     36 H3          0.2293    0.4419    0.3548 H         1 <0>         0.0000
     37 H4         -2.7965   -4.7376    3.9209 H         1 <0>         0.0000
     38 H5         -1.2896   -9.0997    2.1268 H         1 <0>         0.0000
     39 H6         -1.1701   -1.6094    0.5757 H         1 <0>         0.0000
     40 H7          2.9909   -1.1254    3.2744 H         1 <0>         0.0000
     41 H8          1.0456   -6.6110    9.3323 H         1 <0>         0.0000
     42 H9          1.5173   -4.9656    8.9420 H         1 <0>         0.0000
     43 H10         3.5721    3.3114   -0.8433 H         1 <0>         0.0000
     44 H11         5.0699    4.2128   -0.2970 H         1 <0>         0.0000
     45 H12         3.6967    5.3912    1.4884 H         1 <0>         0.0000
     46 H13         2.2071    4.4826    0.9314 H         1 <0>         0.0000
     47 H14         2.2890   -6.4346    7.1249 H         1 <0>         0.0000
     48 H15         0.6880   -7.1480    6.9456 H         1 <0>         0.0000
     49 H16        -1.2656   -6.2050    8.5331 H         1 <0>         0.0000
     50 H17        -0.8238   -4.9860    9.7456 H         1 <0>         0.0000
     51 H18        -0.9099   -3.9408    5.6709 H         1 <0>         0.0000
     52 H19        -1.2853   -5.6023    6.1545 H         1 <0>         0.0000
     53 H20         4.8551    3.2362    1.9891 H         1 <0>         0.0000
     54 H21         1.4534   -4.2336    6.3901 H         1 <0>         0.0000
     55 H22         0.7104   -6.3337    1.0295 H         1 <0>         0.0000
     56 H23         1.4275   -7.1208    2.4332 H         1 <0>         0.0000
     57 H24         0.6461   -8.0945    1.1887 H         1 <0>         0.0000
     58 H25        -3.4247   -4.7524    6.4307 H         1 <0>         0.0000
     59 H26        -3.3701   -5.5768    8.0050 H         1 <0>         0.0000
     60 H27        -4.3773   -4.1510    7.7868 H         1 <0>         0.0000
     61 H28        -2.3786   -2.3864    6.1699 H         1 <0>         0.0000
     62 H29        -1.5345   -1.6484    7.5516 H         1 <0>         0.0000
     63 H30        -3.2902   -1.7950    7.5557 H         1 <0>         0.0000
     64 H31         0.5754   -6.4656    4.5193 H         1 <0>         0.0000
     65 H32         2.2015   -5.7761    4.6713 H         1 <0>         0.0000
     66 H33        -2.3665   -3.5048    9.0360 H         1 <0>         0.0000
     67 H34        -0.2480   -3.5212    7.9399 H         1 <0>         0.0000
@<TRIPOS>BOND
     1    1    2 3
     2    1   10 1
     3    2   23 1
     4    3    4 ar
     5    3    6 ar
     6    3   34 1
     7    4    7 ar
     8    4   35 1
     9    5    8 ar
    10    5   10 ar
    11    5   36 1
    12    6   12 ar
    13    6   37 1
    14    7   13 ar
    15    7   38 1
    16    8   14 ar
    17    8   39 1
    18    9   10 ar
    19    9   11 ar
    20    9   40 1
    21   11   14 ar
    22   11   15 1
    23   12   13 ar
    24   12   16 1
    25   13   25 1
    26   14   30 1
    27   15   31 am
    28   15   33 2
    29   16   30 2
    30   16   31 1
    31   17   20 1
    32   17   21 1
    33   17   41 1
    34   17   42 1
    35   18   19 1
    36   18   23 1
    37   18   43 1
    38   18   44 1
    39   19   23 1
    40   19   45 1
    41   19   46 1
    42   20   24 1
    43   20   47 1
    44   20   48 1
    45   21   32 1
    46   21   49 1
    47   21   50 1
    48   22   24 1
    49   22   32 1
    50   22   51 1
    51   22   52 1
    52   23   53 1
    53   24   28 1
    54   24   54 1
    55   25   55 1
    56   25   56 1
    57   25   57 1
    58   26   29 1
    59   26   58 1
    60   26   59 1
    61   26   60 1
    62   27   29 1
    63   27   61 1
    64   27   62 1
    65   27   63 1
    66   28   31 1
    67   28   64 1
    68   28   65 1
    69   29   32 1
    70   29   66 1
    71   32   67 1
