@<TRIPOS>MOLECULE
*****
   33    33     0     0     0
SMALL
NO_CHARGES

@<TRIPOS>ATOM
      1 C1          3.0766   -0.4043    1.2540 C.ar      1 <0>         0.0000
      2 C2          1.6871   -2.2808    0.6334 C.ar      1 <0>         0.0000
      3 C3          1.9982    0.1724    1.9249 C.ar      1 <0>         0.0000
      4 C4          0.6087   -1.7042    1.3043 C.ar      1 <0>         0.0000
      5 C5          2.9210   -1.6309    0.6081 C.ar      1 <0>         0.0000
      6 C6          0.7642   -0.4776    1.9501 C.ar      1 <0>         0.0000
      7 C7          3.7900   -5.2014    2.9235 C.3       1 <0>         0.0000
      8 C8          6.3169   -2.6040    3.0100 C.3       1 <0>         0.0000
      9 C9          3.1707   -4.0323    2.2363 C.3       1 <0>         0.0000
     10 C10         4.8433   -2.4056    3.1191 C.3       1 <0>         0.0000
     11 N1          4.0014   -2.2081   -0.0669 N.2       1 <0>         0.0000
     12 N2          4.6480   -2.9428    0.7111 N.2       1 <0>         0.0000
     13 N3         -0.3887   -0.4172    4.3526 N.pl3     1 <0>         0.0000
     14 N4          4.1498   -2.9940    1.9863 N.pl3     1 <0>         0.0000
     15 O1         -0.3675    1.6831    2.8579 O.2       1 <0>         0.0000
     16 O2         -1.8189   -0.2733    2.2147 O.2       1 <0>         0.0000
     17 S1         -0.5852    0.2448    2.7897 S.o2      1 <0>         0.0000
     18 H1          4.0339    0.1101    1.2389 H         1 <0>         0.0000
     19 H2          1.5564   -3.2365    0.1324 H         1 <0>         0.0000
     20 H3          2.1308    1.1279    2.4252 H         1 <0>         0.0000
     21 H4         -0.3480   -2.2192    1.3179 H         1 <0>         0.0000
     22 H5          4.2177   -4.8785    3.8841 H         1 <0>         0.0000
     23 H6          3.0231   -5.9693    3.1034 H         1 <0>         0.0000
     24 H7          4.5860   -5.6196    2.2900 H         1 <0>         0.0000
     25 H8          6.6833   -2.1329    2.0860 H         1 <0>         0.0000
     26 H9          6.8138   -2.1450    3.8774 H         1 <0>         0.0000
     27 H10         6.5410   -3.6807    2.9862 H         1 <0>         0.0000
     28 H11         2.7456   -4.3633    1.2773 H         1 <0>         0.0000
     29 H12         2.3700   -3.6253    2.8713 H         1 <0>         0.0000
     30 H13         4.4849   -2.8792    4.0450 H         1 <0>         0.0000
     31 H14         4.6276   -1.3274    3.1515 H         1 <0>         0.0000
     32 H15        -0.0699    0.2070    5.1038 H         1 <0>         0.0000
     33 H16        -1.0605   -1.1300    4.6622 H         1 <0>         0.0000
@<TRIPOS>BOND
     1    1    3 ar
     2    1    5 ar
     3    1   18 1
     4    2    4 ar
     5    2    5 ar
     6    2   19 1
     7    3    6 ar
     8    3   20 1
     9    4    6 ar
    10    4   21 1
    11    5   11 1
    12    6   17 1
    13    7    9 1
    14    7   22 1
    15    7   23 1
    16    7   24 1
    17    8   10 1
    18    8   25 1
    19    8   26 1
    20    8   27 1
    21    9   14 1
    22    9   28 1
    23    9   29 1
    24   10   14 1
    25   10   30 1
    26   10   31 1
    27   11   12 2
    28   12   14 1
    29   13   17 1
    30   13   32 1
    31   13   33 1
    32   15   17 2
    33   16   17 2
