@<TRIPOS>MOLECULE
*****
   25    26     0     0     0
SMALL
NO_CHARGES

@<TRIPOS>ATOM
      1 C1         -2.6250   -1.2780   -0.5050 C.ar      1 <0>         0.0000
      2 C2         -2.7360   -0.5360   -1.6780 C.ar      1 <0>         0.0000
      3 C3         -1.3830   -1.4700    0.1010 C.ar      1 <0>         0.0000
      4 C4         -1.6010    0.0220   -2.2530 C.ar      1 <0>         0.0000
      5 C5         -0.2220   -0.9230   -0.4510 C.ar      1 <0>         0.0000
      6 C6         -0.3630   -0.1760   -1.6370 C.ar      1 <0>         0.0000
      7 C7          1.6890    0.1670    0.6700 C.2       1 <0>         0.0000
      8 C8          2.0340   -1.9020   -0.6860 C.2       1 <0>         0.0000
      9 C9          2.9210    0.5730    0.3130 C.2       1 <0>         0.0000
     10 C10         3.2580   -1.4500   -1.0120 C.2       1 <0>         0.0000
     11 C11         1.1040   -1.1710    0.2630 C.3       1 <0>         0.0000
     12 N1          3.7380   -0.2380   -0.4920 N.pl3     1 <0>         0.0000
     13 N2          0.7650    0.4420   -2.3020 N.pl3     1 <0>         0.0000
     14 O1          1.3350   -0.1510   -3.2050 O.3       1 <0>         0.0000
     15 O2          1.0510    1.6030   -2.0570 O.2       1 <0>         0.0000
     16 H1         -3.4940   -1.7020   -0.0690 H         1 <0>         0.0000
     17 H2         -3.6860   -0.3970   -2.1310 H         1 <0>         0.0000
     18 H3         -1.3310   -2.0410    0.9940 H         1 <0>         0.0000
     19 H4         -1.6750    0.5890   -3.1470 H         1 <0>         0.0000
     20 H5          1.0680    0.7800    1.2690 H         1 <0>         0.0000
     21 H6          1.6670   -2.8120   -1.0830 H         1 <0>         0.0000
     22 H7          3.3420    1.5060    0.5930 H         1 <0>         0.0000
     23 H8          3.9190   -1.9540   -1.6730 H         1 <0>         0.0000
     24 H9          0.9610   -1.7750    1.1490 H         1 <0>         0.0000
     25 H10         4.6570    0.1200   -0.8030 H         1 <0>         0.0000
@<TRIPOS>BOND
     1    1    2 ar
     2    1    3 ar
     3    1   16 1
     4    2    4 ar
     5    2   17 1
     6    3    5 ar
     7    3   18 1
     8    4    6 ar
     9    4   19 1
    10    5    6 ar
    11    5   11 1
    12    6   13 1
    13    7    9 2
    14    7   11 1
    15    7   20 1
    16    8   10 2
    17    8   11 1
    18    8   21 1
    19    9   12 1
    20    9   22 1
    21   10   12 1
    22   10   23 1
    23   11   24 1
    24   12   25 1
    25   13   14 1
    26   13   15 2
