@<TRIPOS>MOLECULE
*****
   31    31     0     0     0
SMALL
NO_CHARGES

@<TRIPOS>ATOM
      1 C1          6.8175    1.2892    3.4745 C.ar      1 <0>         0.0000
      2 C2          5.5550    1.1784    2.8919 C.ar      1 <0>         0.0000
      3 C3          6.2381    3.4795    4.3135 C.ar      1 <0>         0.0000
      4 C4          7.1590    2.4398    4.1854 C.ar      1 <0>         0.0000
      5 C5          4.6341    2.2182    3.0200 C.ar      1 <0>         0.0000
      6 C6          4.9756    3.3688    3.7309 C.ar      1 <0>         0.0000
      7 C7          2.9005    0.9712    1.6804 C.2       1 <0>         0.0000
      8 C8          8.5086    2.5564    4.8093 C.3       1 <0>         0.0000
      9 C9          1.3879    2.3941    0.2506 C.3       1 <0>         0.0000
     10 C10         0.4929    1.3768    2.3464 C.3       1 <0>         0.0000
     11 C11         1.0167   -0.0716    0.3507 C.3       1 <0>         0.0000
     12 C12         1.4515    1.1565    1.1656 C.3       1 <0>         0.0000
     13 N1          3.3650    2.0605    2.4115 N.am      1 <0>         0.0000
     14 O1          3.5306   -0.0569    1.4387 O.2       1 <0>         0.0000
     15 I1          3.6464    4.9729    3.9635 I         1 <0>         0.0000
     16 H1          7.5281    0.4737    3.3697 H         1 <0>         0.0000
     17 H2          5.3020    0.2760    2.3409 H         1 <0>         0.0000
     18 H3          6.5205    4.3700    4.8714 H         1 <0>         0.0000
     19 H4          9.2165    3.0119    4.1061 H         1 <0>         0.0000
     20 H5          8.4758    3.1719    5.7177 H         1 <0>         0.0000
     21 H6          8.8967    1.5731    5.1059 H         1 <0>         0.0000
     22 H7          0.3730    2.5537   -0.1316 H         1 <0>         0.0000
     23 H8          2.0552    2.2872   -0.6120 H         1 <0>         0.0000
     24 H9          1.6828    3.3022    0.7892 H         1 <0>         0.0000
     25 H10        -0.5369    1.5095    1.9952 H         1 <0>         0.0000
     26 H11         0.7544    2.2662    2.9294 H         1 <0>         0.0000
     27 H12         0.5080    0.5227    3.0329 H         1 <0>         0.0000
     28 H13        -0.0080    0.0467   -0.0199 H         1 <0>         0.0000
     29 H14         1.0526   -0.9828    0.9587 H         1 <0>         0.0000
     30 H15         1.6596   -0.2375   -0.5202 H         1 <0>         0.0000
     31 H16         2.7338    2.8475    2.5360 H         1 <0>         0.0000
@<TRIPOS>BOND
     1    1    2 ar
     2    1    4 ar
     3    1   16 1
     4    2    5 ar
     5    2   17 1
     6    3    4 ar
     7    3    6 ar
     8    3   18 1
     9    4    8 1
    10    5    6 ar
    11    5   13 1
    12    6   15 1
    13    7   12 1
    14    7   13 am
    15    7   14 2
    16    8   19 1
    17    8   20 1
    18    8   21 1
    19    9   12 1
    20    9   22 1
    21    9   23 1
    22    9   24 1
    23   10   12 1
    24   10   25 1
    25   10   26 1
    26   10   27 1
    27   11   12 1
    28   11   28 1
    29   11   29 1
    30   11   30 1
    31   13   31 1
