@<TRIPOS>MOLECULE
*****
   22    22     0     0     0
SMALL
NO_CHARGES

@<TRIPOS>ATOM
      1 C1          1.8739   -1.2841    0.0294 C.ar      1 <0>         0.0000
      2 C2          0.8616   -0.5599    0.6142 C.ar      1 <0>         0.0000
      3 C3          1.6711   -1.1702    2.8354 C.ar      1 <0>         0.0000
      4 C4          2.8652   -2.0085    0.8003 C.ar      1 <0>         0.0000
      5 C5          0.7451   -0.5045    2.0245 C.ar      1 <0>         0.0000
      6 C6          2.7065   -1.8753    2.2413 C.ar      1 <0>         0.0000
      7 N1          0.0603    2.0587    2.5438 N.pl3     1 <0>         0.0000
      8 N2          4.0772   -4.1333    2.6407 N.pl3     1 <0>         0.0000
      9 O1          3.7677   -2.7109    0.2540 O.3       1 <0>         0.0000
     10 O2         -1.7572    0.4350    1.9386 O.2       1 <0>         0.0000
     11 O3         -0.6091    0.1449    4.1913 O.2       1 <0>         0.0000
     12 O4          5.2158   -1.8530    3.1890 O.2       1 <0>         0.0000
     13 O5          3.3879   -2.7221    4.6792 O.2       1 <0>         0.0000
     14 S1         -0.5288    0.4490    2.7504 S.o2      1 <0>         0.0000
     15 S2          3.9347   -2.5796    3.3184 S.o2      1 <0>         0.0000
     16 H1          1.9617   -1.3480   -1.0522 H         1 <0>         0.0000
     17 H2          0.1316   -0.0353    0.0033 H         1 <0>         0.0000
     18 H3          1.5790   -1.1446    3.9173 H         1 <0>         0.0000
     19 H4         -0.7125    2.6852    2.7798 H         1 <0>         0.0000
     20 H5          0.8186    2.2055    3.2123 H         1 <0>         0.0000
     21 H6          4.2013   -3.9536    1.6265 H         1 <0>         0.0000
     22 H7          4.9370   -4.5355    3.0202 H         1 <0>         0.0000
@<TRIPOS>BOND
     1    1    2 ar
     2    1    4 ar
     3    1   16 1
     4    2    5 ar
     5    2   17 1
     6    3    5 ar
     7    3    6 ar
     8    3   18 1
     9    4    6 ar
    10    4    9 1
    11    5   14 1
    12    6   15 1
    13    7   14 1
    14    7   19 1
    15    7   20 1
    16    8   15 1
    17    8   21 1
    18    8   22 1
    19   10   14 2
    20   11   14 2
    21   12   15 2
    22   13   15 2
