@<TRIPOS>MOLECULE
*****
   39    40     0     0     0
SMALL
NO_CHARGES

@<TRIPOS>ATOM
      1 C1          2.4534   -0.8721   -0.0743 C.ar      1 <0>         0.0000
      2 C2          3.4629   -1.0909    2.1105 C.ar      1 <0>         0.0000
      3 C3         -0.1379    4.3472    1.5026 C.ar      1 <0>         0.0000
      4 C4          0.9904    4.1966    3.6344 C.ar      1 <0>         0.0000
      5 C5          1.2910   -0.3674    0.5078 C.ar      1 <0>         0.0000
      6 C6          2.3061   -0.5867    2.7088 C.ar      1 <0>         0.0000
      7 C7         -0.3981    2.9753    1.5298 C.ar      1 <0>         0.0000
      8 C8          0.7381    2.8258    3.6769 C.ar      1 <0>         0.0000
      9 C9          3.5550   -1.2365    0.7182 C.ar      1 <0>         0.0000
     10 C10         0.5596    4.9740    2.5461 C.ar      1 <0>         0.0000
     11 C11         1.2321   -0.2240    1.8961 C.ar      1 <0>         0.0000
     12 C12         0.0502    2.2273    2.6185 C.ar      1 <0>         0.0000
     13 C13         4.8002   -1.8184    0.0889 C.3       1 <0>         0.0000
     14 C14         0.8008    6.4661    2.5193 C.3       1 <0>         0.0000
     15 C15         4.6267   -3.2718   -0.3593 C.3       1 <0>         0.0000
     16 C16        -0.1256    7.2439    3.4574 C.3       1 <0>         0.0000
     17 O1         -1.3793    0.1810    1.7463 O.2       1 <0>         0.0000
     18 O2         -0.2658    0.0302    4.0602 O.2       1 <0>         0.0000
     19 O3          3.7370   -3.2925   -1.4806 O.3       1 <0>         0.0000
     20 O4          0.2484    6.9456    4.8067 O.3       1 <0>         0.0000
     21 S1         -0.2505    0.4558    2.6508 S.o2      1 <0>         0.0000
     22 H1          2.5066   -1.0056   -1.1499 H         1 <0>         0.0000
     23 H2          4.3043   -1.3780    2.7375 H         1 <0>         0.0000
     24 H3         -0.4860    4.9380    0.6581 H         1 <0>         0.0000
     25 H4          1.5079    4.6779    4.4579 H         1 <0>         0.0000
     26 H5          0.4299   -0.1048   -0.0992 H         1 <0>         0.0000
     27 H6          2.2261   -0.4893    3.7870 H         1 <0>         0.0000
     28 H7         -0.9524    2.4910    0.7319 H         1 <0>         0.0000
     29 H8          1.0503    2.2256    4.5260 H         1 <0>         0.0000
     30 H9          5.0977   -1.2307   -0.7868 H         1 <0>         0.0000
     31 H10         5.6306   -1.7795    0.8018 H         1 <0>         0.0000
     32 H11         1.8343    6.6925    2.8049 H         1 <0>         0.0000
     33 H12         0.6548    6.8485    1.5036 H         1 <0>         0.0000
     34 H13         5.6072   -3.6828   -0.6411 H         1 <0>         0.0000
     35 H14         4.2265   -3.8706    0.4708 H         1 <0>         0.0000
     36 H15        -0.0191    8.3205    3.2598 H         1 <0>         0.0000
     37 H16        -1.1699    6.9591    3.2672 H         1 <0>         0.0000
     38 H17         3.4723   -4.2093   -1.6488 H         1 <0>         0.0000
     39 H18        -0.4431    7.2757    5.3997 H         1 <0>         0.0000
@<TRIPOS>BOND
     1    1    5 ar
     2    1    9 ar
     3    1   22 1
     4    2    6 ar
     5    2    9 ar
     6    2   23 1
     7    3    7 ar
     8    3   10 ar
     9    3   24 1
    10    4    8 ar
    11    4   10 ar
    12    4   25 1
    13    5   11 ar
    14    5   26 1
    15    6   11 ar
    16    6   27 1
    17    7   12 ar
    18    7   28 1
    19    8   12 ar
    20    8   29 1
    21    9   13 1
    22   10   14 1
    23   11   21 1
    24   12   21 1
    25   13   15 1
    26   13   30 1
    27   13   31 1
    28   14   16 1
    29   14   32 1
    30   14   33 1
    31   15   19 1
    32   15   34 1
    33   15   35 1
    34   16   20 1
    35   16   36 1
    36   16   37 1
    37   17   21 2
    38   18   21 2
    39   19   38 1
    40   20   39 1
