@<TRIPOS>MOLECULE
*****
   23    23     0     0     0
SMALL
NO_CHARGES

@<TRIPOS>ATOM
      1 C1         -0.4664    5.1567    0.9108 C.ar      1 <0>         0.0000
      2 C2         -0.8983    5.1072   -0.4146 C.ar      1 <0>         0.0000
      3 C3         -0.3151    3.9771    1.6396 C.ar      1 <0>         0.0000
      4 C4         -1.1788    3.8780   -1.0112 C.ar      1 <0>         0.0000
      5 C5         -0.5956    2.7479    1.0430 C.ar      1 <0>         0.0000
      6 C6         -1.0275    2.6983   -0.2824 C.ar      1 <0>         0.0000
      7 C7         -0.2059    0.4467   -0.9763 C.3       1 <0>         0.0000
      8 C8         -2.7957   -0.1127    0.7713 C.3       1 <0>         0.0000
      9 N1         -1.3183    1.4247   -0.9005 N.pl3     1 <0>         0.0000
     10 O1         -3.1846   -0.1199   -1.8019 O.2       1 <0>         0.0000
     11 O2         -3.8444    1.9208   -0.4882 O.2       1 <0>         0.0000
     12 S1         -2.9218    0.8286   -0.7350 S.o2      1 <0>         0.0000
     13 H1         -0.2488    6.1141    1.3757 H         1 <0>         0.0000
     14 H2         -1.0154    6.0261   -0.9816 H         1 <0>         0.0000
     15 H3          0.0217    4.0164    2.6715 H         1 <0>         0.0000
     16 H4         -1.5141    3.8508   -2.0449 H         1 <0>         0.0000
     17 H5         -0.4735    1.8346    1.6198 H         1 <0>         0.0000
     18 H6         -0.5585   -0.4734   -1.4654 H         1 <0>         0.0000
     19 H7          0.6218    0.8774   -1.5590 H         1 <0>         0.0000
     20 H8          0.1446    0.2107    0.0393 H         1 <0>         0.0000
     21 H9         -3.7718   -0.5502    0.9868 H         1 <0>         0.0000
     22 H10        -2.0493   -0.8953    0.6268 H         1 <0>         0.0000
     23 H11        -2.4930    0.5612    1.5741 H         1 <0>         0.0000
@<TRIPOS>BOND
     1    1    3 ar
     2    1    2 ar
     3    1   13 1
     4    2    4 ar
     5    2   14 1
     6    3    5 ar
     7    3   15 1
     8    4    6 ar
     9    4   16 1
    10    5    6 ar
    11    5   17 1
    12    6    9 1
    13    7    9 1
    14    7   18 1
    15    7   19 1
    16    7   20 1
    17    8   12 1
    18    8   21 1
    19    8   22 1
    20    8   23 1
    21    9   12 1
    22   10   12 2
    23   11   12 2
