@<TRIPOS>MOLECULE
*****
   25    26     0     0     0
SMALL
NO_CHARGES

@<TRIPOS>ATOM
      1 C1         -2.0676    1.6926    7.5728 C.ar      1 <0>         0.0000
      2 C2         -3.2781    2.3189    7.2980 C.ar      1 <0>         0.0000
      3 C3         -1.4752    0.8837    6.6094 C.ar      1 <0>         0.0000
      4 C4         -0.6272    1.3448    0.8691 C.2       1 <0>         0.0000
      5 C5         -3.8509    2.1058    6.0545 C.ar      1 <0>         0.0000
      6 C6         -0.3367    1.9200   -0.3003 C.2       1 <0>         0.0000
      7 C7         -2.1289    0.7347    5.3968 C.ar      1 <0>         0.0000
      8 C8         -1.2112    2.1812    1.9418 C.2       1 <0>         0.0000
      9 C9         -1.1014    4.1131    0.4001 C.2       1 <0>         0.0000
     10 C10        -1.5485   -0.1104    4.3397 C.2       1 <0>         0.0000
     11 N1         -3.3056    1.3271    5.0934 N.ar      1 <0>         0.0000
     12 N2         -1.5252    1.7176    3.1039 N.2       1 <0>         0.0000
     13 N3         -1.2357    0.3602    3.1763 N.2       1 <0>         0.0000
     14 N4         -0.5586    3.2487   -0.5415 N.am      1 <0>         0.0000
     15 N5         -1.4063    3.5136    1.6256 N.am      1 <0>         0.0000
     16 O1         -1.2982    5.3080    0.1767 O.2       1 <0>         0.0000
     17 H1         -1.5866    1.8346    8.5360 H         1 <0>         0.0000
     18 H2         -3.7584    2.9535    8.0337 H         1 <0>         0.0000
     19 H3         -0.5301    0.3908    6.8118 H         1 <0>         0.0000
     20 H4         -0.4495    0.2933    1.0559 H         1 <0>         0.0000
     21 H5         -4.7940    2.5729    5.7902 H         1 <0>         0.0000
     22 H6          0.0925    1.3610   -1.1228 H         1 <0>         0.0000
     23 H7         -1.3897   -1.1772    4.5857 H         1 <0>         0.0000
     24 H8         -0.3104    3.6116   -1.4571 H         1 <0>         0.0000
     25 H9         -1.8057    4.1136    2.3417 H         1 <0>         0.0000
@<TRIPOS>BOND
     1    1    2 ar
     2    1    3 ar
     3    1   17 1
     4    2    5 ar
     5    2   18 1
     6    3    7 ar
     7    3   19 1
     8    4    6 2
     9    4    8 1
    10    4   20 1
    11    5   11 ar
    12    5   21 1
    13    6   14 1
    14    6   22 1
    15    7   10 1
    16    7   11 ar
    17    8   12 2
    18    8   15 1
    19    9   14 am
    20    9   15 am
    21    9   16 2
    22   10   13 2
    23   10   23 1
    24   12   13 1
    25   14   24 1
    26   15   25 1
