@<TRIPOS>MOLECULE
*****
   54    58     0     0     0
SMALL
NO_CHARGES

@<TRIPOS>ATOM
      1 C1          4.5522    3.5357    6.8281 C.ar      1 <0>         0.0000
      2 C2          4.9629    3.6069    5.4950 C.ar      1 <0>         0.0000
      3 C3          3.5670   -2.7984    1.6346 C.ar      1 <0>         0.0000
      4 C4          2.4689   -0.6553    1.8299 C.ar      1 <0>         0.0000
      5 C5          4.6304   -2.3235    2.4023 C.ar      1 <0>         0.0000
      6 C6          3.5322   -0.1804    2.5976 C.ar      1 <0>         0.0000
      7 C7          4.4194    2.3018    7.4772 C.ar      1 <0>         0.0000
      8 C8          5.2554    2.4514    4.7629 C.ar      1 <0>         0.0000
      9 C9          2.4862   -1.9644    1.3485 C.ar      1 <0>         0.0000
     10 C10         4.6129   -1.0145    2.8838 C.ar      1 <0>         0.0000
     11 C11         4.7090    1.1307    6.7568 C.ar      1 <0>         0.0000
     12 C12         5.1161    1.2337    5.4296 C.ar      1 <0>         0.0000
     13 C13         5.0273   -0.8744    6.0950 C.2       1 <0>         0.0000
     14 C14        -0.0592   -3.2402    2.4552 C.2       1 <0>         0.0000
     15 C15         0.6574   -3.3658   -1.7741 C.3       1 <0>         0.0000
     16 C16        -0.0380   -4.5531   -1.1165 C.3       1 <0>         0.0000
     17 C17         1.8015   -2.8386   -0.9111 C.3       1 <0>         0.0000
     18 C18         4.2577   -3.1960    7.0393 C.3       1 <0>         0.0000
     19 C19         3.9286   -3.1979    5.5792 C.3       1 <0>         0.0000
     20 C20        -0.5280   -4.2056    0.2861 C.3       1 <0>         0.0000
     21 C21         1.3267   -2.4832    0.5110 C.3       1 <0>         0.0000
     22 C22         5.1172   -2.4062    6.0774 C.3       1 <0>         0.0000
     23 C23         0.6095   -3.6789    1.1616 C.3       1 <0>         0.0000
     24 C24         5.7503   -0.5054    3.7033 C.3       1 <0>         0.0000
     25 N1          4.6598   -0.1863    7.1526 N.2       1 <0>         0.0000
     26 N2          5.3127   -0.0638    5.0316 N.pl3     1 <0>         0.0000
     27 O1         -0.4605   -2.1100    2.6896 O.2       1 <0>         0.0000
     28 O2         -0.1498   -4.2775    3.3230 O.3       1 <0>         0.0000
     29 H1          4.3317    4.4515    7.3710 H         1 <0>         0.0000
     30 H2          5.0568    4.5784    5.0161 H         1 <0>         0.0000
     31 H3          3.5891   -3.8194    1.2625 H         1 <0>         0.0000
     32 H4          1.6306    0.0014    1.6124 H         1 <0>         0.0000
     33 H5          5.4684   -2.9801    2.6208 H         1 <0>         0.0000
     34 H6          3.5109    0.8413    2.9672 H         1 <0>         0.0000
     35 H7          4.0997    2.2570    8.5134 H         1 <0>         0.0000
     36 H8          5.5735    2.5078    3.7278 H         1 <0>         0.0000
     37 H9          1.0433   -3.6625   -2.7558 H         1 <0>         0.0000
     38 H10        -0.0704   -2.5633   -1.9457 H         1 <0>         0.0000
     39 H11        -0.8853   -4.8721   -1.7339 H         1 <0>         0.0000
     40 H12         0.6557   -5.4013   -1.0629 H         1 <0>         0.0000
     41 H13         2.5951   -3.5968   -0.8656 H         1 <0>         0.0000
     42 H14         2.2427   -1.9564   -1.3921 H         1 <0>         0.0000
     43 H15         3.5940   -2.6575    7.7051 H         1 <0>         0.0000
     44 H16         4.6781   -4.0996    7.4641 H         1 <0>         0.0000
     45 H17         4.1263   -4.1029    5.0176 H         1 <0>         0.0000
     46 H18         3.0422   -2.6616    5.2624 H         1 <0>         0.0000
     47 H19        -1.3291   -3.4576    0.2161 H         1 <0>         0.0000
     48 H20        -0.9776   -5.0939    0.7469 H         1 <0>         0.0000
     49 H21         0.6044   -1.6310    0.4302 H         1 <0>         0.0000
     50 H22         6.1018   -2.8050    5.8556 H         1 <0>         0.0000
     51 H23         1.2924   -4.4743    1.4053 H         1 <0>         0.0000
     52 H24         6.5276   -1.2729    3.8464 H         1 <0>         0.0000
     53 H25         6.2551    0.3458    3.2192 H         1 <0>         0.0000
     54 H26         0.2288   -5.1018    2.9494 H         1 <0>         0.0000
@<TRIPOS>BOND
     1    1    2 ar
     2    1    7 ar
     3    1   29 1
     4    2    8 ar
     5    2   30 1
     6    3    5 ar
     7    3    9 ar
     8    3   31 1
     9    4    6 ar
    10    4    9 ar
    11    4   32 1
    12    5   10 ar
    13    5   33 1
    14    6   10 ar
    15    6   34 1
    16    7   11 ar
    17    7   35 1
    18    8   12 ar
    19    8   36 1
    20    9   21 1
    21   10   24 1
    22   11   12 ar
    23   11   25 1
    24   12   26 1
    25   13   22 1
    26   13   25 2
    27   13   26 1
    28   14   23 1
    29   14   27 2
    30   14   28 1
    31   15   16 1
    32   15   17 1
    33   15   37 1
    34   15   38 1
    35   16   20 1
    36   16   39 1
    37   16   40 1
    38   17   21 1
    39   17   41 1
    40   17   42 1
    41   18   19 1
    42   18   22 1
    43   18   43 1
    44   18   44 1
    45   19   22 1
    46   19   45 1
    47   19   46 1
    48   20   23 1
    49   20   47 1
    50   20   48 1
    51   21   23 1
    52   21   49 1
    53   22   50 1
    54   23   51 1
    55   24   26 1
    56   24   52 1
    57   24   53 1
    58   28   54 1
