@<TRIPOS>MOLECULE
*****
   42    45     0     0     0
SMALL
NO_CHARGES

@<TRIPOS>ATOM
      1 C1          0.0942   -2.6231   -3.5111 C.ar      1 <0>         0.0000
      2 C2          0.2384   -2.2011   -2.1851 C.ar      1 <0>         0.0000
      3 C3         -0.5573   -3.8330   -3.7946 C.ar      1 <0>         0.0000
      4 C4         -0.2613   -2.9587   -1.1164 C.ar      1 <0>         0.0000
      5 C5         -0.0859   -7.3402    2.0846 C.ar      1 <0>         0.0000
      6 C6         -1.9660   -8.6341    1.3070 C.ar      1 <0>         0.0000
      7 C7         -1.0584   -4.5937   -2.7450 C.ar      1 <0>         0.0000
      8 C8         -1.4183   -7.3971    1.6595 C.ar      1 <0>         0.0000
      9 C9         -0.9160   -4.1564   -1.4189 C.ar      1 <0>         0.0000
     10 C10         0.6899   -8.4963    2.1710 C.ar      1 <0>         0.0000
     11 C11         0.1459   -9.7517    1.8210 C.ar      1 <0>         0.0000
     12 C12        -1.1854   -9.7890    1.3813 C.ar      1 <0>         0.0000
     13 C13        -1.5148   -5.0169    0.8299 C.2       1 <0>         0.0000
     14 C14        -1.7421   -5.9418   -2.7714 C.3       1 <0>         0.0000
     15 C15         3.2184  -10.3303    1.8339 C.3       1 <0>         0.0000
     16 C16        -2.2693   -6.1005   -1.3281 C.3       1 <0>         0.0000
     17 C17         3.0428   -8.8165    1.8322 C.3       1 <0>         0.0000
     18 C18         2.0445  -11.0753    1.2119 C.3       1 <0>         0.0000
     19 C19        -2.2494   -6.1287    1.5786 C.3       1 <0>         0.0000
     20 N1         -1.5231   -5.0895   -0.5400 N.am      1 <0>         0.0000
     21 O1         -0.9186   -4.1331    1.4478 O.2       1 <0>         0.0000
     22 O2          1.9635   -8.3724    2.6726 O.3       1 <0>         0.0000
     23 O3          0.8308  -10.9260    1.9701 O.3       1 <0>         0.0000
     24 Cl1        -1.8892  -11.3259    0.9206 Cl        1 <0>         0.0000
     25 H1          0.4876   -2.0151   -4.3213 H         1 <0>         0.0000
     26 H2          0.7463   -1.2641   -1.9716 H         1 <0>         0.0000
     27 H3         -0.6675   -4.1724   -4.8220 H         1 <0>         0.0000
     28 H4         -0.1498   -2.6366   -0.0904 H         1 <0>         0.0000
     29 H5          0.3684   -6.3942    2.3642 H         1 <0>         0.0000
     30 H6         -2.9962   -8.7109    0.9721 H         1 <0>         0.0000
     31 H7         -2.5506   -6.0000   -3.5049 H         1 <0>         0.0000
     32 H8         -1.0212   -6.7318   -3.0124 H         1 <0>         0.0000
     33 H9          4.1267  -10.5750    1.2668 H         1 <0>         0.0000
     34 H10         3.3652  -10.6779    2.8620 H         1 <0>         0.0000
     35 H11        -3.3429   -5.8833   -1.2770 H         1 <0>         0.0000
     36 H12        -2.0960   -7.1005   -0.9317 H         1 <0>         0.0000
     37 H13         3.9307   -8.3295    2.2422 H         1 <0>         0.0000
     38 H14         2.8843   -8.4407    0.8120 H         1 <0>         0.0000
     39 H15         1.8693  -10.7440    0.1795 H         1 <0>         0.0000
     40 H16         2.2328  -12.1512    1.2006 H         1 <0>         0.0000
     41 H17        -3.2202   -6.3465    1.1247 H         1 <0>         0.0000
     42 H18        -2.4307   -5.7340    2.5815 H         1 <0>         0.0000
@<TRIPOS>BOND
     1    1    2 ar
     2    1    3 ar
     3    1   25 1
     4    2    4 ar
     5    2   26 1
     6    3    7 ar
     7    3   27 1
     8    4    9 ar
     9    4   28 1
    10    5    8 ar
    11    5   10 ar
    12    5   29 1
    13    6    8 ar
    14    6   12 ar
    15    6   30 1
    16    7    9 ar
    17    7   14 1
    18    8   19 1
    19    9   20 1
    20   10   11 ar
    21   10   22 1
    22   11   12 ar
    23   11   23 1
    24   12   24 1
    25   13   19 1
    26   13   20 am
    27   13   21 2
    28   14   16 1
    29   14   31 1
    30   14   32 1
    31   15   17 1
    32   15   18 1
    33   15   33 1
    34   15   34 1
    35   16   20 1
    36   16   35 1
    37   16   36 1
    38   17   22 1
    39   17   37 1
    40   17   38 1
    41   18   23 1
    42   18   39 1
    43   18   40 1
    44   19   41 1
    45   19   42 1
