@<TRIPOS>MOLECULE
*****
   30    32     0     0     0
SMALL
NO_CHARGES

@<TRIPOS>ATOM
      1 C1         -0.6765    2.2370   -5.2957 C.1       1 <0>         0.0000
      2 C2          0.0451    2.5704   -2.9764 C.ar      1 <0>         0.0000
      3 C3          0.2979   -1.1769    1.7792 C.ar      1 <0>         0.0000
      4 C4          0.5196   -2.4525    2.2989 C.ar      1 <0>         0.0000
      5 C5          0.1973    2.0788   -1.6848 C.ar      1 <0>         0.0000
      6 C6          0.2866   -2.0843   -0.4619 C.ar      1 <0>         0.0000
      7 C7         -0.8874    0.4756   -3.6080 C.ar      1 <0>         0.0000
      8 C8         -0.5068    1.7599   -3.9623 C.ar      1 <0>         0.0000
      9 C9          0.1764   -0.9939    0.4014 C.ar      1 <0>         0.0000
     10 C10         0.6167   -3.5455    1.4372 C.ar      1 <0>         0.0000
     11 C11         0.5219   -3.3582    0.0560 C.ar      1 <0>         0.0000
     12 C12        -0.2150    0.7803   -1.4324 C.ar      1 <0>         0.0000
     13 C13         0.5543   -5.8390    1.0877 C.3       1 <0>         0.0000
     14 C14         1.2151   -5.5522   -0.2464 C.3       1 <0>         0.0000
     15 N1         -0.8147    2.6252   -6.3806 N.1       1 <0>         0.0000
     16 N2         -0.7552   -0.0369   -2.3641 N.ar      1 <0>         0.0000
     17 N3         -0.0536    0.2967   -0.1197 N.pl3     1 <0>         0.0000
     18 O1          0.8145   -4.7756    2.0082 O.3       1 <0>         0.0000
     19 O2          0.6415   -4.3858   -0.8429 O.3       1 <0>         0.0000
     20 H1          0.3607    3.5864   -3.2000 H         1 <0>         0.0000
     21 H2          0.2164   -0.3319    2.4583 H         1 <0>         0.0000
     22 H3          0.6037   -2.5874    3.3738 H         1 <0>         0.0000
     23 H4          0.6260    2.7047   -0.9090 H         1 <0>         0.0000
     24 H5          0.2005   -1.9425   -1.5368 H         1 <0>         0.0000
     25 H6         -1.3253   -0.2062   -4.3315 H         1 <0>         0.0000
     26 H7         -0.5317   -5.9550    0.9843 H         1 <0>         0.0000
     27 H8          0.9568   -6.7599    1.5210 H         1 <0>         0.0000
     28 H9          2.2953   -5.3948   -0.1370 H         1 <0>         0.0000
     29 H10         1.0599   -6.3886   -0.9350 H         1 <0>         0.0000
     30 H11        -0.1136    1.0179    0.5929 H         1 <0>         0.0000
@<TRIPOS>BOND
     1    1    8 1
     2    1   15 3
     3    2    5 ar
     4    2    8 ar
     5    2   20 1
     6    3    4 ar
     7    3    9 ar
     8    3   21 1
     9    4   10 ar
    10    4   22 1
    11    5   12 ar
    12    5   23 1
    13    6    9 ar
    14    6   11 ar
    15    6   24 1
    16    7    8 ar
    17    7   16 ar
    18    7   25 1
    19    9   17 1
    20   10   11 ar
    21   10   18 1
    22   11   19 1
    23   12   16 ar
    24   12   17 1
    25   13   14 1
    26   13   18 1
    27   13   26 1
    28   13   27 1
    29   14   19 1
    30   14   28 1
    31   14   29 1
    32   17   30 1
