@<TRIPOS>MOLECULE
*****
   68    70     0     0     0
SMALL
NO_CHARGES

@<TRIPOS>ATOM
      1 C1          1.8628   -0.3051   -3.6717 C.ar      1 <0>         0.0000
      2 C2          8.6711    3.7466   -2.1871 C.ar      1 <0>         0.0000
      3 C3          0.9921    0.7192   -3.2887 C.ar      1 <0>         0.0000
      4 C4          3.2465   -0.1270   -3.5580 C.ar      1 <0>         0.0000
      5 C5          7.8262    4.8066   -2.5296 C.ar      1 <0>         0.0000
      6 C6          8.2983    2.8523   -1.1767 C.ar      1 <0>         0.0000
      7 C7          1.4998    1.9169   -2.7797 C.ar      1 <0>         0.0000
      8 C8          3.7555    1.0735   -3.0588 C.ar      1 <0>         0.0000
      9 C9          6.6027    4.9669   -1.8725 C.ar      1 <0>         0.0000
     10 C10         7.0801    3.0176   -0.5151 C.ar      1 <0>         0.0000
     11 C11         2.8837    2.0992   -2.6594 C.ar      1 <0>         0.0000
     12 C12         6.2208    4.0718   -0.8644 C.ar      1 <0>         0.0000
     13 C13        -0.0880    1.7007    1.1663 C.2       1 <0>         0.0000
     14 C14        -2.8559    0.0585   -0.4626 C.3       1 <0>         0.0000
     15 C15        -2.2943    1.3853    0.0743 C.3       1 <0>         0.0000
     16 C16        -1.0896   -0.6187    0.8673 C.3       1 <0>         0.0000
     17 C17        -2.0446    2.3713   -1.0695 C.3       1 <0>         0.0000
     18 C18        -3.2095    1.9883    1.1494 C.3       1 <0>         0.0000
     19 C19        -0.9681   -1.0779    2.3182 C.3       1 <0>         0.0000
     20 C20        -0.0781   -1.3071   -0.0549 C.3       1 <0>         0.0000
     21 C21         2.3555    0.9494    3.6408 C.3       1 <0>         0.0000
     22 C22         3.4499    3.3624   -2.0736 C.3       1 <0>         0.0000
     23 C23         4.8921    4.2047   -0.1726 C.3       1 <0>         0.0000
     24 C24         3.1590    2.0968    1.5280 C.3       1 <0>         0.0000
     25 C25         2.7607    2.9203    0.3082 C.3       1 <0>         0.0000
     26 C26         1.9565    1.7839    2.4311 C.3       1 <0>         0.0000
     27 N1         -1.0396    0.8711    0.6924 N.am      1 <0>         0.0000
     28 N2          3.9236    3.1243   -0.6404 N.4       1 <0>         0.0000
     29 O1         -0.1169    2.9308    1.1274 O.2       1 <0>         0.0000
     30 O2         -2.4229   -0.9294    0.4630 O.3       1 <0>         0.0000
     31 O3          0.9866    1.0120    1.6840 O.3       1 <0>         0.0000
     32 H1          1.4664   -1.2361   -4.0666 H         1 <0>         0.0000
     33 H2          9.6221    3.6233   -2.6970 H         1 <0>         0.0000
     34 H3         -0.0811    0.5873   -3.3909 H         1 <0>         0.0000
     35 H4          3.9248   -0.9155   -3.8709 H         1 <0>         0.0000
     36 H5          8.1193    5.5088   -3.3045 H         1 <0>         0.0000
     37 H6          8.9617    2.0392   -0.8967 H         1 <0>         0.0000
     38 H7          0.8193    2.7107   -2.4815 H         1 <0>         0.0000
     39 H8          4.8336    1.2197   -3.0007 H         1 <0>         0.0000
     40 H9          5.9521    5.7972   -2.1385 H         1 <0>         0.0000
     41 H10         6.8124    2.3367    0.2925 H         1 <0>         0.0000
     42 H11        -3.9466    0.0404   -0.4884 H         1 <0>         0.0000
     43 H12        -2.4703   -0.1502   -1.4710 H         1 <0>         0.0000
     44 H13        -1.6730    3.3263   -0.6979 H         1 <0>         0.0000
     45 H14        -2.9836    2.5468   -1.6048 H         1 <0>         0.0000
     46 H15        -1.3223    1.9592   -1.7804 H         1 <0>         0.0000
     47 H16        -2.7145    2.8270    1.6442 H         1 <0>         0.0000
     48 H17        -3.4688    1.2348    1.8984 H         1 <0>         0.0000
     49 H18        -4.1354    2.3549    0.6949 H         1 <0>         0.0000
     50 H19        -1.6249   -0.4828    2.9574 H         1 <0>         0.0000
     51 H20         0.0567   -1.0040    2.6792 H         1 <0>         0.0000
     52 H21        -1.2890   -2.1214    2.3716 H         1 <0>         0.0000
     53 H22        -0.2507   -1.0224   -1.0959 H         1 <0>         0.0000
     54 H23        -0.1872   -2.3913    0.0336 H         1 <0>         0.0000
     55 H24         0.9427   -1.0292    0.2152 H         1 <0>         0.0000
     56 H25         2.7925   -0.0055    3.3330 H         1 <0>         0.0000
     57 H26         1.4791    0.7442    4.2600 H         1 <0>         0.0000
     58 H27         3.0872    1.4869    4.2519 H         1 <0>         0.0000
     59 H28         4.3244    3.7064   -2.6268 H         1 <0>         0.0000
     60 H29         2.7172    4.1698   -2.0211 H         1 <0>         0.0000
     61 H30         4.9868    4.0856    0.9074 H         1 <0>         0.0000
     62 H31         4.4062    5.1609   -0.3743 H         1 <0>         0.0000
     63 H32         3.9086    2.6153    2.1351 H         1 <0>         0.0000
     64 H33         3.5976    1.1450    1.2000 H         1 <0>         0.0000
     65 H34         1.9922    2.4004   -0.2565 H         1 <0>         0.0000
     66 H35         2.3770    3.9075    0.5696 H         1 <0>         0.0000
     67 H36         1.4840    2.7170    2.7449 H         1 <0>         0.0000
     68 H37         4.4531    2.2459   -0.6670 H         1 <0>         0.0000
@<TRIPOS>BOND
     1    1    4 ar
     2    1    3 ar
     3    1   32 1
     4    2    6 ar
     5    2    5 ar
     6    2   33 1
     7    3    7 ar
     8    3   34 1
     9    4    8 ar
    10    4   35 1
    11    5    9 ar
    12    5   36 1
    13    6   10 ar
    14    6   37 1
    15    7   11 ar
    16    7   38 1
    17    8   11 ar
    18    8   39 1
    19    9   12 ar
    20    9   40 1
    21   10   12 ar
    22   10   41 1
    23   11   22 1
    24   12   23 1
    25   13   27 am
    26   13   29 2
    27   13   31 1
    28   14   15 1
    29   14   30 1
    30   14   42 1
    31   14   43 1
    32   15   17 1
    33   15   18 1
    34   15   27 1
    35   16   19 1
    36   16   20 1
    37   16   27 1
    38   16   30 1
    39   17   44 1
    40   17   45 1
    41   17   46 1
    42   18   47 1
    43   18   48 1
    44   18   49 1
    45   19   50 1
    46   19   51 1
    47   19   52 1
    48   20   53 1
    49   20   54 1
    50   20   55 1
    51   21   26 1
    52   21   56 1
    53   21   57 1
    54   21   58 1
    55   22   28 1
    56   22   59 1
    57   22   60 1
    58   23   28 1
    59   23   61 1
    60   23   62 1
    61   24   25 1
    62   24   26 1
    63   24   63 1
    64   24   64 1
    65   25   28 1
    66   25   65 1
    67   25   66 1
    68   26   31 1
    69   26   67 1
    70   28   68 1
