@<TRIPOS>MOLECULE
*****
   30    32     0     0     0
SMALL
NO_CHARGES

@<TRIPOS>ATOM
      1 C1          1.3275    1.7961   -0.4729 C.ar      1 <0>         0.0000
      2 C2          0.0576    1.2681   -0.2057 C.ar      1 <0>         0.0000
      3 C3          1.4650    3.0531   -1.0752 C.ar      1 <0>         0.0000
      4 C4         -1.0974    1.9882   -0.5364 C.ar      1 <0>         0.0000
      5 C5          0.3138    3.7669   -1.4030 C.ar      1 <0>         0.0000
      6 C6         -0.9568    3.2388   -1.1353 C.ar      1 <0>         0.0000
      7 C7         -2.8783    6.8380   -3.3253 C.cat     1 <0>         0.0000
      8 C8          0.1978    5.1400   -2.0291 C.3       1 <0>         0.0000
      9 C9         -2.0349    4.2148   -1.5589 C.3       1 <0>         0.0000
     10 C10        -4.8488    6.7541   -4.5293 C.3       1 <0>         0.0000
     11 C11        -4.4195    8.2107   -4.2693 C.3       1 <0>         0.0000
     12 C12        -1.2606    5.1349   -2.5373 C.3       1 <0>         0.0000
     13 N1         -3.6482    6.0344   -4.0652 N.pl3     1 <0>         0.0000
     14 N2         -1.7987    6.5057   -2.6493 N.pl3     1 <0>         0.0000
     15 O1         -3.2908    8.0950   -3.3285 O.3       1 <0>         0.0000
     16 H1          2.2132    1.2228   -0.2149 H         1 <0>         0.0000
     17 H2         -0.0315    0.2897    0.2578 H         1 <0>         0.0000
     18 H3          2.4526    3.4565   -1.2844 H         1 <0>         0.0000
     19 H4         -2.0806    1.5726   -0.3296 H         1 <0>         0.0000
     20 H5          0.3339    5.9218   -1.2668 H         1 <0>         0.0000
     21 H6          0.9167    5.3302   -2.8303 H         1 <0>         0.0000
     22 H7         -2.9023    3.7284   -2.0187 H         1 <0>         0.0000
     23 H8         -2.3997    4.7995   -0.7041 H         1 <0>         0.0000
     24 H9         -5.7230    6.4595   -3.9423 H         1 <0>         0.0000
     25 H10        -5.0342    6.5597   -5.5864 H         1 <0>         0.0000
     26 H11        -4.0375    8.7102   -5.1604 H         1 <0>         0.0000
     27 H12        -5.1783    8.8209   -3.7838 H         1 <0>         0.0000
     28 H13        -1.2695    4.6969   -3.5413 H         1 <0>         0.0000
     29 H14        -3.5755    5.0248   -4.0404 H         1 <0>         0.0000
     30 H15        -1.3357    7.2605   -2.1509 H         1 <0>         0.0000
@<TRIPOS>BOND
     1    1    2 ar
     2    1    3 ar
     3    1   16 1
     4    2    4 ar
     5    2   17 1
     6    3    5 ar
     7    3   18 1
     8    4    6 ar
     9    4   19 1
    10    5    6 ar
    11    5    8 1
    12    6    9 1
    13    7   13 2
    14    7   14 1
    15    7   15 1
    16    8   12 1
    17    8   20 1
    18    8   21 1
    19    9   12 1
    20    9   22 1
    21    9   23 1
    22   10   11 1
    23   10   13 1
    24   10   24 1
    25   10   25 1
    26   11   15 1
    27   11   26 1
    28   11   27 1
    29   12   14 1
    30   12   28 1
    31   13   29 1
    32   14   30 1
