@<TRIPOS>MOLECULE
*****
   18    18     0     0     0
SMALL
NO_CHARGES

@<TRIPOS>ATOM
      1 C1          4.7220    1.5110    1.3580 C.ar      1 <0>         0.0000
      2 C2          5.8140    1.2490    0.5380 C.ar      1 <0>         0.0000
      3 C3          3.5470    0.8180    1.1200 C.ar      1 <0>         0.0000
      4 C4          5.6980    0.3100   -0.4840 C.ar      1 <0>         0.0000
      5 C5          3.5140   -0.1080    0.0700 C.ar      1 <0>         0.0000
      6 C6          1.1650   -0.9400    0.2080 C.2       1 <0>         0.0000
      7 C7          0.2210   -1.8960   -0.4690 C.3       1 <0>         0.0000
      8 N1          4.5640   -0.3540   -0.7100 N.ar      1 <0>         0.0000
      9 N2          2.4260   -0.8810   -0.3100 N.am      1 <0>         0.0000
     10 O1          0.8290   -0.2640    1.1510 O.2       1 <0>         0.0000
     11 H1          4.7870    2.2220    2.1430 H         1 <0>         0.0000
     12 H2          6.7300    1.7590    0.6880 H         1 <0>         0.0000
     13 H3          2.7000    0.9940    1.7250 H         1 <0>         0.0000
     14 H4          6.5270    0.1050   -1.1130 H         1 <0>         0.0000
     15 H5         -0.7200   -1.8380    0.0580 H         1 <0>         0.0000
     16 H6          0.6610   -2.8800   -0.4000 H         1 <0>         0.0000
     17 H7          0.1270   -1.5730   -1.4950 H         1 <0>         0.0000
     18 H8          2.6290   -1.4900   -1.1070 H         1 <0>         0.0000
@<TRIPOS>BOND
     1    1    2 ar
     2    1    3 ar
     3    1   11 1
     4    2    4 ar
     5    2   12 1
     6    3    5 ar
     7    3   13 1
     8    4    8 ar
     9    4   14 1
    10    5    8 ar
    11    5    9 1
    12    6    7 1
    13    6    9 am
    14    6   10 2
    15    7   15 1
    16    7   16 1
    17    7   17 1
    18    9   18 1
