@<TRIPOS>MOLECULE
*****
   29    30     0     0     0
SMALL
NO_CHARGES

@<TRIPOS>ATOM
      1 C1          3.9862    0.1984   -2.3691 C.ar      1 <0>         0.0000
      2 C2          5.1039    0.6856   -0.2833 C.ar      1 <0>         0.0000
      3 C3          5.1608    0.4834   -3.0651 C.ar      1 <0>         0.0000
      4 C4          6.2786    0.9707   -0.9793 C.ar      1 <0>         0.0000
      5 C5          3.9577    0.2995   -0.9781 C.ar      1 <0>         0.0000
      6 C6          0.6801   -0.6032   -0.4943 C.2       1 <0>         0.0000
      7 C7          6.3070    0.8696   -2.3703 C.ar      1 <0>         0.0000
      8 C8         -0.4856   -0.9818   -1.0546 C.2       1 <0>         0.0000
      9 C9          0.4423   -0.5680    0.9795 C.2       1 <0>         0.0000
     10 N1          2.7733    0.0148   -0.2765 N.2       1 <0>         0.0000
     11 N2          1.8673   -0.3081   -1.0769 N.2       1 <0>         0.0000
     12 N3         -1.4136   -1.1749   -0.0604 N.pl3     1 <0>         0.0000
     13 N4         -0.8785   -0.9398    1.1606 N.am      1 <0>         0.0000
     14 N5         -0.7039   -1.1574   -2.3870 N.pl3     1 <0>         0.0000
     15 N6          8.5161   -0.3134   -3.2788 N.pl3     1 <0>         0.0000
     16 O1          1.2730   -0.2684    1.8192 O.2       1 <0>         0.0000
     17 O2          7.4232    1.6105   -4.6015 O.2       1 <0>         0.0000
     18 O3          8.5928    2.1171   -2.4282 O.2       1 <0>         0.0000
     19 S1          7.7769    1.2266   -3.2420 S.o2      1 <0>         0.0000
     20 H1          3.0978   -0.1007   -2.9192 H         1 <0>         0.0000
     21 H2          5.0908    0.7678    0.8005 H         1 <0>         0.0000
     22 H3          5.1720    0.4007   -4.1486 H         1 <0>         0.0000
     23 H4          7.1657    1.2703   -0.4281 H         1 <0>         0.0000
     24 H5         -2.3308   -1.5712   -0.2026 H         1 <0>         0.0000
     25 H6         -1.3582   -1.0214    2.0470 H         1 <0>         0.0000
     26 H7         -1.6111   -1.4409   -2.6914 H         1 <0>         0.0000
     27 H8          0.0494   -0.9979   -3.0221 H         1 <0>         0.0000
     28 H9          8.5477   -0.8115   -4.1767 H         1 <0>         0.0000
     29 H10         9.3448   -0.4645   -2.6908 H         1 <0>         0.0000
@<TRIPOS>BOND
     1    1    3 ar
     2    1    5 ar
     3    1   20 1
     4    2    4 ar
     5    2    5 ar
     6    2   21 1
     7    3    7 ar
     8    3   22 1
     9    4    7 ar
    10    4   23 1
    11    5   10 1
    12    6    8 2
    13    6    9 1
    14    6   11 1
    15    7   19 1
    16    8   12 1
    17    8   14 1
    18    9   13 am
    19    9   16 2
    20   10   11 2
    21   12   13 1
    22   12   24 1
    23   13   25 1
    24   14   26 1
    25   14   27 1
    26   15   19 1
    27   15   28 1
    28   15   29 1
    29   17   19 2
    30   18   19 2
