@<TRIPOS>MOLECULE
*****
   67    69     0     0     0
SMALL
NO_CHARGES

@<TRIPOS>ATOM
      1 C1         -9.3434   -4.4985   -3.4541 C.1       1 <0>         0.0000
      2 C2         -7.4849   -3.5009   -2.2339 C.ar      1 <0>         0.0000
      3 C3         -6.7052   -3.3594   -1.0895 C.ar      1 <0>         0.0000
      4 C4         -8.1056   -4.9754    0.0583 C.ar      1 <0>         0.0000
      5 C5         -8.5789   -4.3816   -2.2429 C.ar      1 <0>         0.0000
      6 C6         -8.8903   -5.1178   -1.0820 C.ar      1 <0>         0.0000
      7 C7         -7.0148   -4.1059    0.0463 C.ar      1 <0>         0.0000
      8 C8         -6.7322   -3.4372    2.4284 C.2       1 <0>         0.0000
      9 C9         -4.8982   -4.3741    1.3689 C.2       1 <0>         0.0000
     10 C10         1.2920   -6.2346   -4.2374 C.2       1 <0>         0.0000
     11 C11         0.2314   -6.7379   -1.9790 C.3       1 <0>         0.0000
     12 C12         1.9641   -5.0409   -2.2043 C.3       1 <0>         0.0000
     13 C13        -0.6180   -5.7890   -1.1347 C.3       1 <0>         0.0000
     14 C14         1.1532   -4.0555   -1.3739 C.3       1 <0>         0.0000
     15 C15        -5.5910   -3.4978    3.4459 C.3       1 <0>         0.0000
     16 C16        -6.0021   -4.4131    4.6094 C.3       1 <0>         0.0000
     17 C17        -5.2382   -2.0824    3.9216 C.3       1 <0>         0.0000
     18 C18        -0.0385   -8.4309   -6.8742 C.3       1 <0>         0.0000
     19 C19         0.4216   -7.3297   -4.8564 C.3       1 <0>         0.0000
     20 C20        -2.0325   -3.6266    2.5125 C.3       1 <0>         0.0000
     21 C21        -1.0216   -4.5266    1.7658 C.3       1 <0>         0.0000
     22 C22        -3.1941   -4.4214    3.1667 C.3       1 <0>         0.0000
     23 C23        -0.5415   -3.8541    0.4845 C.3       1 <0>         0.0000
     24 C24       -10.0659   -6.0748   -1.0706 C.3       1 <0>         0.0000
     25 N1         -9.9246   -4.5638   -4.4603 N.1       1 <0>         0.0000
     26 N2         -6.2299   -3.9671    1.2322 N.am      1 <0>         0.0000
     27 N3         -4.5083   -4.0878    2.6291 N.pl3     1 <0>         0.0000
     28 N4          1.0868   -5.9839   -2.8744 N.am      1 <0>         0.0000
     29 N5          0.2616   -4.7979   -0.3956 N.4       1 <0>         0.0000
     30 O1         -7.8532   -3.0206    2.6113 O.2       1 <0>         0.0000
     31 O2          2.1106   -5.5955   -4.8696 O.2       1 <0>         0.0000
     32 O3          0.7134   -7.4137   -6.2167 O.3       1 <0>         0.0000
     33 F1        -10.2006   -6.6761    0.1334 F         1 <0>         0.0000
     34 F2        -11.2238   -5.4378   -1.3397 F         1 <0>         0.0000
     35 F3         -9.9093   -7.0504   -1.9936 F         1 <0>         0.0000
     36 S1         -3.9983   -5.1002    0.1600 S.2       1 <0>         0.0000
     37 H1         -7.2591   -2.9291   -3.1277 H         1 <0>         0.0000
     38 H2         -5.8612   -2.6781   -1.0786 H         1 <0>         0.0000
     39 H3         -8.3417   -5.5385    0.9534 H         1 <0>         0.0000
     40 H4          0.8282   -7.3928   -1.3238 H         1 <0>         0.0000
     41 H5         -0.4532   -7.3804   -2.5312 H         1 <0>         0.0000
     42 H6          2.5312   -4.4994   -2.9631 H         1 <0>         0.0000
     43 H7          2.6871   -5.5701   -1.5634 H         1 <0>         0.0000
     44 H8         -1.2846   -5.1947   -1.7616 H         1 <0>         0.0000
     45 H9         -1.2142   -6.3260   -0.3976 H         1 <0>         0.0000
     46 H10         1.7998   -3.3981   -0.7888 H         1 <0>         0.0000
     47 H11         0.4923   -3.4529   -2.0004 H         1 <0>         0.0000
     48 H12        -5.2210   -4.4497    5.3739 H         1 <0>         0.0000
     49 H13        -6.2006   -5.4300    4.2595 H         1 <0>         0.0000
     50 H14        -6.9118   -4.0184    5.0679 H         1 <0>         0.0000
     51 H15        -4.4190   -2.1133    4.6463 H         1 <0>         0.0000
     52 H16        -6.1096   -1.6360    4.4060 H         1 <0>         0.0000
     53 H17        -4.9431   -1.4463    3.0824 H         1 <0>         0.0000
     54 H18         0.2639   -8.4118   -7.9217 H         1 <0>         0.0000
     55 H19        -1.1187   -8.2377   -6.8046 H         1 <0>         0.0000
     56 H20         0.1775   -9.4227   -6.4519 H         1 <0>         0.0000
     57 H21        -0.6443   -7.0897   -4.6881 H         1 <0>         0.0000
     58 H22         0.6239   -8.2852   -4.3388 H         1 <0>         0.0000
     59 H23        -2.4706   -2.9063    1.8171 H         1 <0>         0.0000
     60 H24        -1.5126   -3.0391    3.2744 H         1 <0>         0.0000
     61 H25        -0.1659   -4.7621    2.4104 H         1 <0>         0.0000
     62 H26        -1.5207   -5.4632    1.5130 H         1 <0>         0.0000
     63 H27        -3.2356   -4.2184    4.2367 H         1 <0>         0.0000
     64 H28        -3.0349   -5.4984    3.0522 H         1 <0>         0.0000
     65 H29         0.1029   -2.9970    0.6939 H         1 <0>         0.0000
     66 H30        -1.3892   -3.5245   -0.1190 H         1 <0>         0.0000
     67 H31         0.8791   -5.3389    0.2213 H         1 <0>         0.0000
@<TRIPOS>BOND
     1    1    5 1
     2    1   25 3
     3    2    3 ar
     4    2    5 ar
     5    2   37 1
     6    3    7 ar
     7    3   38 1
     8    4    6 ar
     9    4    7 ar
    10    4   39 1
    11    5    6 ar
    12    6   24 1
    13    7   26 1
    14    8   15 1
    15    8   26 am
    16    8   30 2
    17    9   26 1
    18    9   27 1
    19    9   36 2
    20   10   19 1
    21   10   28 am
    22   10   31 2
    23   11   13 1
    24   11   28 1
    25   11   40 1
    26   11   41 1
    27   12   14 1
    28   12   28 1
    29   12   42 1
    30   12   43 1
    31   13   29 1
    32   13   44 1
    33   13   45 1
    34   14   29 1
    35   14   46 1
    36   14   47 1
    37   15   16 1
    38   15   17 1
    39   15   27 1
    40   16   48 1
    41   16   49 1
    42   16   50 1
    43   17   51 1
    44   17   52 1
    45   17   53 1
    46   18   32 1
    47   18   54 1
    48   18   55 1
    49   18   56 1
    50   19   32 1
    51   19   57 1
    52   19   58 1
    53   20   21 1
    54   20   22 1
    55   20   59 1
    56   20   60 1
    57   21   23 1
    58   21   61 1
    59   21   62 1
    60   22   27 1
    61   22   63 1
    62   22   64 1
    63   23   29 1
    64   23   65 1
    65   23   66 1
    66   24   33 1
    67   24   34 1
    68   24   35 1
    69   29   67 1
