@<TRIPOS>MOLECULE
*****
   51    52     0     0     0
SMALL
NO_CHARGES

@<TRIPOS>ATOM
      1 C1          0.3878   -5.8879   11.6627 C.ar      1 <0>         0.0000
      2 C2          2.2056   -6.5164    9.6207 C.ar      1 <0>         0.0000
      3 C3          4.4006   -6.3135   12.4326 C.ar      1 <0>         0.0000
      4 C4          1.7629   -6.0187   11.9802 C.ar      1 <0>         0.0000
      5 C5          2.6818   -6.3353   10.9443 C.ar      1 <0>         0.0000
      6 C6         -0.0663   -6.0640   10.3745 C.ar      1 <0>         0.0000
      7 C7          0.8587   -6.3939    9.3319 C.ar      1 <0>         0.0000
      8 C8          2.3280   -5.8536   13.2967 C.ar      1 <0>         0.0000
      9 C9          0.9671   -5.4759   16.7348 C.3       1 <0>         0.0000
     10 C10         2.6077   -3.8003   15.7455 C.3       1 <0>         0.0000
     11 C11        -1.8202   -4.8235    9.3764 C.3       1 <0>         0.0000
     12 C12        -3.3594   -5.0196    2.4755 C.3       1 <0>         0.0000
     13 C13         0.2985   -7.1192    5.7807 C.3       1 <0>         0.0000
     14 C14        -0.4343   -5.8340    5.3755 C.3       1 <0>         0.0000
     15 C15         1.1691   -6.9352    7.0153 C.3       1 <0>         0.0000
     16 C16        -1.3490   -6.0560    4.1752 C.3       1 <0>         0.0000
     17 C17         2.0651   -5.2347   15.6973 C.3       1 <0>         0.0000
     18 N1          4.0251   -6.4843   11.1810 N.ar      1 <0>         0.0000
     19 N2          3.6377   -6.0004   13.5059 N.ar      1 <0>         0.0000
     20 N3         -3.1849   -4.0294    4.8918 N.2       1 <0>         0.0000
     21 N4          1.5361   -5.5667   14.3687 N.pl3     1 <0>         0.0000
     22 O1         -1.1736   -3.6016    3.1873 O.2       1 <0>         0.0000
     23 O2         -1.4148   -5.9877   10.1117 O.3       1 <0>         0.0000
     24 O3          0.3049   -6.5792    8.1017 O.3       1 <0>         0.0000
     25 S1         -2.2203   -4.4872    3.7639 S.o       1 <0>         0.0000
     26 H1         -0.3629   -5.6644   12.4157 H         1 <0>         0.0000
     27 H2          2.9402   -6.7661    8.8648 H         1 <0>         0.0000
     28 H3          5.4634   -6.4313   12.6428 H         1 <0>         0.0000
     29 H4          0.1061   -4.8175   16.5604 H         1 <0>         0.0000
     30 H5          0.6194   -6.5130   16.7056 H         1 <0>         0.0000
     31 H6          1.3419   -5.2645   17.7405 H         1 <0>         0.0000
     32 H7          1.8067   -3.0741   15.5619 H         1 <0>         0.0000
     33 H8          3.3853   -3.6642   14.9899 H         1 <0>         0.0000
     34 H9          3.0417   -3.5866   16.7284 H         1 <0>         0.0000
     35 H10        -2.8961   -4.9199    9.2199 H         1 <0>         0.0000
     36 H11        -1.3128   -4.7687    8.4088 H         1 <0>         0.0000
     37 H12        -1.6106   -3.9143    9.9540 H         1 <0>         0.0000
     38 H13        -3.8664   -4.1174    2.1308 H         1 <0>         0.0000
     39 H14        -2.7772   -5.4656    1.6678 H         1 <0>         0.0000
     40 H15        -4.0773   -5.7235    2.8961 H         1 <0>         0.0000
     41 H16        -0.4254   -7.9178    5.9793 H         1 <0>         0.0000
     42 H17         0.9428   -7.4625    4.9622 H         1 <0>         0.0000
     43 H18         0.2927   -5.0494    5.1390 H         1 <0>         0.0000
     44 H19        -1.0336   -5.4879    6.2225 H         1 <0>         0.0000
     45 H20         1.6993   -7.8646    7.2563 H         1 <0>         0.0000
     46 H21         1.9121   -6.1416    6.8601 H         1 <0>         0.0000
     47 H22        -0.7899   -6.3511    3.2822 H         1 <0>         0.0000
     48 H23        -2.1232   -6.7981    4.3930 H         1 <0>         0.0000
     49 H24         2.8927   -5.9245   15.8761 H         1 <0>         0.0000
     50 H25        -2.6648   -3.5519    5.6307 H         1 <0>         0.0000
     51 H26         0.5861   -5.2790   14.1800 H         1 <0>         0.0000
@<TRIPOS>BOND
     1    1    4 ar
     2    1    6 ar
     3    1   26 1
     4    2    5 ar
     5    2    7 ar
     6    2   27 1
     7    3   18 ar
     8    3   19 ar
     9    3   28 1
    10    4    5 ar
    11    4    8 ar
    12    5   18 ar
    13    6    7 ar
    14    6   23 1
    15    7   24 1
    16    8   19 ar
    17    8   21 1
    18    9   17 1
    19    9   29 1
    20    9   30 1
    21    9   31 1
    22   10   17 1
    23   10   32 1
    24   10   33 1
    25   10   34 1
    26   11   23 1
    27   11   35 1
    28   11   36 1
    29   11   37 1
    30   12   25 1
    31   12   38 1
    32   12   39 1
    33   12   40 1
    34   13   14 1
    35   13   15 1
    36   13   41 1
    37   13   42 1
    38   14   16 1
    39   14   43 1
    40   14   44 1
    41   15   24 1
    42   15   45 1
    43   15   46 1
    44   16   25 1
    45   16   47 1
    46   16   48 1
    47   17   21 1
    48   17   49 1
    49   20   25 2
    50   20   50 1
    51   21   51 1
    52   22   25 2
