@<TRIPOS>MOLECULE
*****
   66    69     0     0     0
SMALL
NO_CHARGES

@<TRIPOS>ATOM
      1 C1          1.1599    2.3735    1.1741 C.ar      1 <0>         0.0000
      2 C2          0.9982    1.6047    3.5027 C.ar      1 <0>         0.0000
      3 C3          0.5511    0.1243    1.6156 C.ar      1 <0>         0.0000
      4 C4          0.7946    1.1277    0.6727 C.ar      1 <0>         0.0000
      5 C5          0.1772   -1.2266    1.3728 C.2       1 <0>         0.0000
      6 C6          1.2717    2.6134    2.5727 C.ar      1 <0>         0.0000
      7 C7          0.6273    0.3443    3.0077 C.ar      1 <0>         0.0000
      8 C8          0.0133   -1.8176    2.6078 C.2       1 <0>         0.0000
      9 C9         -2.4325    2.4901   -4.3853 C.2       1 <0>         0.0000
     10 C10         0.1216   -1.7040   -0.0442 C.3       1 <0>         0.0000
     11 C11        -0.0377    1.9273   -1.5901 C.3       1 <0>         0.0000
     12 C12        -0.5024    0.1721   -3.3241 C.3       1 <0>         0.0000
     13 C13         0.5963    0.7565   -0.7896 C.3       1 <0>         0.0000
     14 C14        -0.2817   -0.5291   -0.9659 C.3       1 <0>         0.0000
     15 C15        -1.0306    1.4385   -2.6516 C.3       1 <0>         0.0000
     16 C16         1.6889    3.9891    3.0454 C.3       1 <0>         0.0000
     17 C17         1.2019   -3.6315   -4.6352 C.3       1 <0>         0.0000
     18 C18        -3.7017    2.5545   -7.4540 C.3       1 <0>         0.0000
     19 C19        -1.4116    5.5819   -4.9000 C.3       1 <0>         0.0000
     20 C20        -2.2584   -3.3105    3.1295 C.3       1 <0>         0.0000
     21 C21         0.2564   -2.4913   -4.2410 C.3       1 <0>         0.0000
     22 C22         0.6081   -1.9175   -2.8624 C.3       1 <0>         0.0000
     23 C23        -3.7249    3.4519   -6.2134 C.3       1 <0>         0.0000
     24 C24        -1.4176    4.3213   -5.7749 C.3       1 <0>         0.0000
     25 N1          0.2771   -0.8524    3.6039 N.pl3     1 <0>         0.0000
     26 N2         -0.3814   -0.9516   -2.3826 N.3       1 <0>         0.0000
     27 N3         -1.2745    2.5049   -3.6190 N.am      1 <0>         0.0000
     28 N4         -2.4816    3.3801   -5.4409 N.am      1 <0>         0.0000
     29 O1         -3.3774    1.7410   -4.1137 O.2       1 <0>         0.0000
     30 S1         -0.4269   -3.4654    3.0322 S.3       1 <0>         0.0000
     31 H1          1.3596    3.2009    0.4960 H         1 <0>         0.0000
     32 H2          1.0704    1.8050    4.5691 H         1 <0>         0.0000
     33 H3          1.1167   -2.0742   -0.3139 H         1 <0>         0.0000
     34 H4         -0.5789   -2.5339   -0.1791 H         1 <0>         0.0000
     35 H5         -0.5536    2.6147   -0.9146 H         1 <0>         0.0000
     36 H6          0.7572    2.5053   -2.0792 H         1 <0>         0.0000
     37 H7         -1.1724   -0.1011   -4.1442 H         1 <0>         0.0000
     38 H8          0.4819    0.4199   -3.7725 H         1 <0>         0.0000
     39 H9          1.5805    0.5268   -1.2212 H         1 <0>         0.0000
     40 H10        -1.2950   -0.2518   -0.6487 H         1 <0>         0.0000
     41 H11        -1.9975    1.2176   -2.1986 H         1 <0>         0.0000
     42 H12         1.0285    4.7653    2.6420 H         1 <0>         0.0000
     43 H13         1.6649    4.0636    4.1363 H         1 <0>         0.0000
     44 H14         2.7074    4.2288    2.7173 H         1 <0>         0.0000
     45 H15         2.2444   -3.2927   -4.6630 H         1 <0>         0.0000
     46 H16         1.1428   -4.4623   -3.9224 H         1 <0>         0.0000
     47 H17         0.9550   -4.0257   -5.6265 H         1 <0>         0.0000
     48 H18        -2.8744    2.8180   -8.1229 H         1 <0>         0.0000
     49 H19        -3.5859    1.5088   -7.1558 H         1 <0>         0.0000
     50 H20        -4.6368    2.6521   -8.0172 H         1 <0>         0.0000
     51 H21        -2.3630    6.1153   -4.9930 H         1 <0>         0.0000
     52 H22        -1.2718    5.3264   -3.8458 H         1 <0>         0.0000
     53 H23        -0.6070    6.2608   -5.2045 H         1 <0>         0.0000
     54 H24        -2.6445   -4.2970    3.3999 H         1 <0>         0.0000
     55 H25        -2.6653   -3.0130    2.1612 H         1 <0>         0.0000
     56 H26        -2.5479   -2.5868    3.8941 H         1 <0>         0.0000
     57 H27        -0.7795   -2.8492   -4.2114 H         1 <0>         0.0000
     58 H28         0.2981   -1.7096   -5.0067 H         1 <0>         0.0000
     59 H29         0.6518   -2.7587   -2.1694 H         1 <0>         0.0000
     60 H30         1.6284   -1.4824   -2.9073 H         1 <0>         0.0000
     61 H31        -4.5446    3.1581   -5.5572 H         1 <0>         0.0000
     62 H32        -3.8850    4.4982   -6.4986 H         1 <0>         0.0000
     63 H33        -0.4409    3.8226   -5.7386 H         1 <0>         0.0000
     64 H34        -1.5504    4.6012   -6.8243 H         1 <0>         0.0000
     65 H35         0.3042   -1.0666    4.5909 H         1 <0>         0.0000
     66 H36        -0.4447    2.9273   -4.0126 H         1 <0>         0.0000
@<TRIPOS>BOND
     1    1    4 ar
     2    1    6 ar
     3    1   31 1
     4    2    6 ar
     5    2    7 ar
     6    2   32 1
     7    3    4 ar
     8    3    5 1
     9    3    7 ar
    10    4   13 1
    11    5    8 2
    12    5   10 1
    13    6   16 1
    14    7   25 1
    15    8   25 1
    16    8   30 1
    17    9   27 am
    18    9   28 am
    19    9   29 2
    20   10   14 1
    21   10   33 1
    22   10   34 1
    23   11   13 1
    24   11   15 1
    25   11   35 1
    26   11   36 1
    27   12   15 1
    28   12   26 1
    29   12   37 1
    30   12   38 1
    31   13   14 1
    32   13   39 1
    33   14   26 1
    34   14   40 1
    35   15   27 1
    36   15   41 1
    37   16   42 1
    38   16   43 1
    39   16   44 1
    40   17   21 1
    41   17   45 1
    42   17   46 1
    43   17   47 1
    44   18   23 1
    45   18   48 1
    46   18   49 1
    47   18   50 1
    48   19   24 1
    49   19   51 1
    50   19   52 1
    51   19   53 1
    52   20   30 1
    53   20   54 1
    54   20   55 1
    55   20   56 1
    56   21   22 1
    57   21   57 1
    58   21   58 1
    59   22   26 1
    60   22   59 1
    61   22   60 1
    62   23   28 1
    63   23   61 1
    64   23   62 1
    65   24   28 1
    66   24   63 1
    67   24   64 1
    68   25   65 1
    69   27   66 1
