@<TRIPOS>MOLECULE
*****
   66    69     0     0     0
SMALL
NO_CHARGES

@<TRIPOS>ATOM
      1 C1         -2.0219    2.3676   -1.0848 C.ar      1 <0>         0.0000
      2 C2         -3.7792    1.3291   -2.4535 C.ar      1 <0>         0.0000
      3 C3         -2.1945    0.0013   -1.1567 C.ar      1 <0>         0.0000
      4 C4         -1.5334    1.1342   -0.6661 C.ar      1 <0>         0.0000
      5 C5         -1.8935   -1.3672   -0.9015 C.2       1 <0>         0.0000
      6 C6         -3.1384    2.4709   -1.9630 C.ar      1 <0>         0.0000
      7 C7         -3.2887    0.0785   -2.0447 C.ar      1 <0>         0.0000
      8 C8         -2.7943   -2.1112   -1.6345 C.2       1 <0>         0.0000
      9 C9          2.8518    1.9914    3.1948 C.2       1 <0>         0.0000
     10 C10        -0.7759   -1.6913    0.0405 C.3       1 <0>         0.0000
     11 C11         0.7506    1.9407    0.0917 C.3       1 <0>         0.0000
     12 C12         2.4641    0.1873    0.6560 C.3       1 <0>         0.0000
     13 C13        -0.3482    0.8729    0.2532 C.3       1 <0>         0.0000
     14 C14         0.2652   -0.5482   -0.0018 C.3       1 <0>         0.0000
     15 C15         2.0153    1.6410    0.9027 C.3       1 <0>         0.0000
     16 C16        -3.6278    3.8465   -2.3607 C.3       1 <0>         0.0000
     17 C17         3.2011   -2.6911    2.4792 C.3       1 <0>         0.0000
     18 C18         4.3068    3.5242    5.6487 C.3       1 <0>         0.0000
     19 C19         0.3741    1.3400    5.5000 C.3       1 <0>         0.0000
     20 C20        -1.9125   -4.1970   -3.2262 C.3       1 <0>         0.0000
     21 C21         2.3584   -1.5597    3.0777 C.3       1 <0>         0.0000
     22 C22         1.1263   -1.2092    2.2355 C.3       1 <0>         0.0000
     23 C23         3.6553    2.1474    5.4851 C.3       1 <0>         0.0000
     24 C24         1.2238    2.5267    5.0263 C.3       1 <0>         0.0000
     25 N1         -3.6382   -1.2258   -2.3388 N.pl3     1 <0>         0.0000
     26 N2          1.4272   -0.8268    0.8524 N.3       1 <0>         0.0000
     27 N3          1.7809    1.9581    2.3175 N.am      1 <0>         0.0000
     28 N4          2.5433    2.1426    4.5319 N.am      1 <0>         0.0000
     29 O1          4.0210    1.9000    2.7980 O.2       1 <0>         0.0000
     30 S1         -2.9859   -3.8528   -1.7711 S.3       1 <0>         0.0000
     31 H1         -1.5519    3.2895   -0.7506 H         1 <0>         0.0000
     32 H2         -4.6228    1.4208   -3.1338 H         1 <0>         0.0000
     33 H3         -1.1884   -1.7915    1.0507 H         1 <0>         0.0000
     34 H4         -0.2837   -2.6390   -0.1987 H         1 <0>         0.0000
     35 H5          1.0254    1.9836   -0.9688 H         1 <0>         0.0000
     36 H6          0.3731    2.9321    0.3619 H         1 <0>         0.0000
     37 H7          2.7936    0.1197   -0.3903 H         1 <0>         0.0000
     38 H8          3.3345   -0.0299    1.2724 H         1 <0>         0.0000
     39 H9         -0.7236    0.8883    1.2886 H         1 <0>         0.0000
     40 H10         0.6516   -0.5242   -1.0312 H         1 <0>         0.0000
     41 H11         2.8217    2.3009    0.5711 H         1 <0>         0.0000
     42 H12        -2.8127    4.4564   -2.7661 H         1 <0>         0.0000
     43 H13        -4.4131    3.7898   -3.1197 H         1 <0>         0.0000
     44 H14        -4.0366    4.3861   -1.4980 H         1 <0>         0.0000
     45 H15         2.5985   -3.5964    2.3408 H         1 <0>         0.0000
     46 H16         3.6035   -2.4142    1.5011 H         1 <0>         0.0000
     47 H17         4.0415   -2.9410    3.1355 H         1 <0>         0.0000
     48 H18         4.7298    3.8503    4.6954 H         1 <0>         0.0000
     49 H19         3.5812    4.2736    5.9845 H         1 <0>         0.0000
     50 H20         5.1125    3.4802    6.3903 H         1 <0>         0.0000
     51 H21         0.1720    0.6392    4.6837 H         1 <0>         0.0000
     52 H22         0.8915    0.7838    6.2881 H         1 <0>         0.0000
     53 H23        -0.5856    1.6870    5.8991 H         1 <0>         0.0000
     54 H24        -1.9660   -5.2735   -3.4101 H         1 <0>         0.0000
     55 H25        -0.8800   -3.9155   -3.0104 H         1 <0>         0.0000
     56 H26        -2.2687   -3.6614   -4.1085 H         1 <0>         0.0000
     57 H27         2.9813   -0.6772    3.2486 H         1 <0>         0.0000
     58 H28         1.9889   -1.8608    4.0661 H         1 <0>         0.0000
     59 H29         0.4994   -2.1049    2.1986 H         1 <0>         0.0000
     60 H30         0.5332   -0.4513    2.7802 H         1 <0>         0.0000
     61 H31         3.2679    1.7879    6.4452 H         1 <0>         0.0000
     62 H32         4.3977    1.4268    5.1385 H         1 <0>         0.0000
     63 H33         1.3685    3.2225    5.8600 H         1 <0>         0.0000
     64 H34         0.6982    3.0956    4.2536 H         1 <0>         0.0000
     65 H35        -4.4385   -1.5301   -2.8754 H         1 <0>         0.0000
     66 H36         0.8863    1.6712    2.6878 H         1 <0>         0.0000
@<TRIPOS>BOND
     1    1    4 ar
     2    1    6 ar
     3    1   31 1
     4    2    6 ar
     5    2    7 ar
     6    2   32 1
     7    3    4 ar
     8    3    5 1
     9    3    7 ar
    10    4   13 1
    11    5    8 2
    12    5   10 1
    13    6   16 1
    14    7   25 1
    15    8   25 1
    16    8   30 1
    17    9   27 am
    18    9   28 am
    19    9   29 2
    20   10   14 1
    21   10   33 1
    22   10   34 1
    23   11   13 1
    24   11   15 1
    25   11   35 1
    26   11   36 1
    27   12   15 1
    28   12   26 1
    29   12   37 1
    30   12   38 1
    31   13   14 1
    32   13   39 1
    33   14   26 1
    34   14   40 1
    35   15   27 1
    36   15   41 1
    37   16   42 1
    38   16   43 1
    39   16   44 1
    40   17   21 1
    41   17   45 1
    42   17   46 1
    43   17   47 1
    44   18   23 1
    45   18   48 1
    46   18   49 1
    47   18   50 1
    48   19   24 1
    49   19   51 1
    50   19   52 1
    51   19   53 1
    52   20   30 1
    53   20   54 1
    54   20   55 1
    55   20   56 1
    56   21   22 1
    57   21   57 1
    58   21   58 1
    59   22   26 1
    60   22   59 1
    61   22   60 1
    62   23   28 1
    63   23   61 1
    64   23   62 1
    65   24   28 1
    66   24   63 1
    67   24   64 1
    68   25   65 1
    69   27   66 1
