@<TRIPOS>MOLECULE
*****
   67    70     0     0     0
SMALL
NO_CHARGES

@<TRIPOS>ATOM
      1 C1          1.9809    1.5723    1.1444 C.ar      1 <0>         0.0000
      2 C2          3.1005    2.2884   -0.9219 C.ar      1 <0>         0.0000
      3 C3          1.0387    0.9875   -0.9570 C.ar      1 <0>         0.0000
      4 C4          0.9706    0.9300    0.4392 C.ar      1 <0>         0.0000
      5 C5          0.1568    0.4094   -1.9103 C.2       1 <0>         0.0000
      6 C6          3.0382    2.2538    0.4742 C.ar      1 <0>         0.0000
      7 C7          2.0849    1.6406   -1.6414 C.ar      1 <0>         0.0000
      8 C8          0.6626    0.7030   -3.1605 C.2       1 <0>         0.0000
      9 C9         -2.9874   -1.2339    4.2233 C.2       1 <0>         0.0000
     10 C10        -1.0618   -0.3014   -1.4096 C.3       1 <0>         0.0000
     11 C11         0.1916   -0.5786    2.3271 C.3       1 <0>         0.0000
     12 C12        -1.4348   -2.4161    1.8170 C.3       1 <0>         0.0000
     13 C13        -0.2008    0.1470    1.0283 C.3       1 <0>         0.0000
     14 C14        -0.9239   -1.4595    2.8953 C.3       1 <0>         0.0000
     15 C15        -0.7051   -0.8787   -0.0227 C.3       1 <0>         0.0000
     16 C16         4.1011    2.9397    1.3026 C.3       1 <0>         0.0000
     17 C17        -5.6775   -1.1220    1.0011 C.3       1 <0>         0.0000
     18 C18        -6.1695   -1.2136    4.9577 C.3       1 <0>         0.0000
     19 C19        -2.7778    1.6360    5.9610 C.3       1 <0>         0.0000
     20 C20        -0.8407    1.7420   -5.2478 C.3       1 <0>         0.0000
     21 C21        -4.3606   -1.9096    1.0012 C.3       1 <0>         0.0000
     22 C22        -4.8701   -1.0243    5.7425 C.3       1 <0>         0.0000
     23 C23        -3.7242    1.0539    4.9042 C.3       1 <0>         0.0000
     24 C24        -3.2005   -0.9818    0.6462 C.3       1 <0>         0.0000
     25 N1          1.8323    1.4610   -2.9892 N.pl3     1 <0>         0.0000
     26 N2         -1.9824   -0.6096    3.4567 N.am      1 <0>         0.0000
     27 N3         -3.8060   -0.4087    4.9331 N.am      1 <0>         0.0000
     28 N4         -1.8649   -1.7082    0.5440 N.4       1 <0>         0.0000
     29 O1         -3.1281   -2.4639    4.1863 O.2       1 <0>         0.0000
     30 S1          0.0810    0.2282   -4.7502 S.3       1 <0>         0.0000
     31 H1          1.9960    1.5665    2.2316 H         1 <0>         0.0000
     32 H2          3.9187    2.8003   -1.4217 H         1 <0>         0.0000
     33 H3         -1.8908    0.4096   -1.3262 H         1 <0>         0.0000
     34 H4         -1.3786   -1.1007   -2.0904 H         1 <0>         0.0000
     35 H5          1.0690   -1.2041    2.1310 H         1 <0>         0.0000
     36 H6          0.5016    0.1493    3.0829 H         1 <0>         0.0000
     37 H7         -0.6189   -3.0831    1.5268 H         1 <0>         0.0000
     38 H8         -2.2644   -3.0110    2.1856 H         1 <0>         0.0000
     39 H9         -1.0194    0.8477    1.2386 H         1 <0>         0.0000
     40 H10        -0.5114   -2.1123    3.6754 H         1 <0>         0.0000
     41 H11         0.0910   -1.6164   -0.1713 H         1 <0>         0.0000
     42 H12         4.5766    2.2382    1.9967 H         1 <0>         0.0000
     43 H13         4.8844    3.3703    0.6742 H         1 <0>         0.0000
     44 H14         3.6714    3.7500    1.9022 H         1 <0>         0.0000
     45 H15        -5.6545   -0.3212    1.7472 H         1 <0>         0.0000
     46 H16        -5.8841   -0.6736    0.0236 H         1 <0>         0.0000
     47 H17        -6.5123   -1.7813    1.2505 H         1 <0>         0.0000
     48 H18        -6.5441   -0.2620    4.5650 H         1 <0>         0.0000
     49 H19        -6.0102   -1.8991    4.1211 H         1 <0>         0.0000
     50 H20        -6.9440   -1.6381    5.6043 H         1 <0>         0.0000
     51 H21        -3.0854    1.3327    6.9657 H         1 <0>         0.0000
     52 H22        -1.7462    1.2949    5.8182 H         1 <0>         0.0000
     53 H23        -2.7821    2.7297    5.9178 H         1 <0>         0.0000
     54 H24        -1.2500    1.5389   -6.2402 H         1 <0>         0.0000
     55 H25        -0.1739    2.6039   -5.3047 H         1 <0>         0.0000
     56 H26        -1.6570    1.9423   -4.5514 H         1 <0>         0.0000
     57 H27        -4.4197   -2.7256    0.2682 H         1 <0>         0.0000
     58 H28        -4.2153   -2.3598    1.9847 H         1 <0>         0.0000
     59 H29        -4.5048   -1.9854    6.1053 H         1 <0>         0.0000
     60 H30        -5.0323   -0.3806    6.6123 H         1 <0>         0.0000
     61 H31        -3.4407    1.3841    3.8996 H         1 <0>         0.0000
     62 H32        -4.7350    1.4376    5.0679 H         1 <0>         0.0000
     63 H33        -3.3753   -0.5339   -0.3313 H         1 <0>         0.0000
     64 H34        -3.0780   -0.1962    1.3869 H         1 <0>         0.0000
     65 H35         2.4404    1.7236   -3.7541 H         1 <0>         0.0000
     66 H36        -1.6155    0.2490    3.8509 H         1 <0>         0.0000
     67 H37        -2.0221   -2.4534   -0.1421 H         1 <0>         0.0000
@<TRIPOS>BOND
     1    1    4 ar
     2    1    6 ar
     3    1   31 1
     4    2    6 ar
     5    2    7 ar
     6    2   32 1
     7    3    4 ar
     8    3    5 1
     9    3    7 ar
    10    4   13 1
    11    5    8 2
    12    5   10 1
    13    6   16 1
    14    7   25 1
    15    8   25 1
    16    8   30 1
    17    9   26 am
    18    9   27 am
    19    9   29 2
    20   10   15 1
    21   10   33 1
    22   10   34 1
    23   11   13 1
    24   11   14 1
    25   11   35 1
    26   11   36 1
    27   12   14 1
    28   12   28 1
    29   12   37 1
    30   12   38 1
    31   13   15 1
    32   13   39 1
    33   14   26 1
    34   14   40 1
    35   15   28 1
    36   15   41 1
    37   16   42 1
    38   16   43 1
    39   16   44 1
    40   17   21 1
    41   17   45 1
    42   17   46 1
    43   17   47 1
    44   18   22 1
    45   18   48 1
    46   18   49 1
    47   18   50 1
    48   19   23 1
    49   19   51 1
    50   19   52 1
    51   19   53 1
    52   20   30 1
    53   20   54 1
    54   20   55 1
    55   20   56 1
    56   21   24 1
    57   21   57 1
    58   21   58 1
    59   22   27 1
    60   22   59 1
    61   22   60 1
    62   23   27 1
    63   23   61 1
    64   23   62 1
    65   24   28 1
    66   24   63 1
    67   24   64 1
    68   25   65 1
    69   26   66 1
    70   28   67 1
