@<TRIPOS>MOLECULE
*****
   35    37     0     0     0
SMALL
NO_CHARGES

@<TRIPOS>ATOM
      1 C1         -4.4572   -1.5599    0.3710 C.ar      1 <0>         0.0000
      2 C2         -4.9821   -1.0314    1.5555 C.ar      1 <0>         0.0000
      3 C3         -3.3204   -0.9909   -0.2130 C.ar      1 <0>         0.0000
      4 C4         -3.2306    0.6193    1.5838 C.ar      1 <0>         0.0000
      5 C5         -4.3789    0.0732    2.1707 C.ar      1 <0>         0.0000
      6 C6         -2.6894    0.1042    0.3990 C.ar      1 <0>         0.0000
      7 C7          1.4357   -1.3219   -1.3410 C.2       1 <0>         0.0000
      8 C8          0.2131   -0.1281    1.4682 C.2       1 <0>         0.0000
      9 C9          1.9233   -2.2303   -2.1923 C.2       1 <0>         0.0000
     10 C10        -4.9856    0.7038    3.4515 C.2       1 <0>         0.0000
     11 C11         2.1828   -0.1035   -0.8329 C.3       1 <0>         0.0000
     12 C12         0.0231   -1.3054   -0.7734 C.3       1 <0>         0.0000
     13 C13         1.3645    1.7546    0.7651 C.3       1 <0>         0.0000
     14 C14         1.0779    0.9127   -0.4796 C.3       1 <0>         0.0000
     15 C15        -0.1097    0.0344   -0.0236 C.3       1 <0>         0.0000
     16 C16        -1.4707    0.7554   -0.2187 C.3       1 <0>         0.0000
     17 O1         -4.3892    1.7314    3.8770 O.co2     1 <0>         0.0000
     18 O2         -0.1075   -1.0190    2.2121 O.2       1 <0>         0.0000
     19 O3         -6.0081    0.1202    3.9051 O.co2     1 <0>         0.0000
     20 O4          1.0109    0.9138    1.8853 O.3       1 <0>         0.0000
     21 H1         -4.9401   -2.4091   -0.1114 H         1 <0>         0.0000
     22 H2         -5.8712   -1.4420    2.0263 H         1 <0>         0.0000
     23 H3         -2.9363   -1.3920   -1.1499 H         1 <0>         0.0000
     24 H4         -2.7858    1.4770    2.0845 H         1 <0>         0.0000
     25 H5          1.3275   -3.0806   -2.5185 H         1 <0>         0.0000
     26 H6          2.9363   -2.1591   -2.5836 H         1 <0>         0.0000
     27 H7          2.7328   -0.3716    0.0798 H         1 <0>         0.0000
     28 H8          2.9133    0.2804   -1.5515 H         1 <0>         0.0000
     29 H9         -0.7068   -1.3639   -1.5856 H         1 <0>         0.0000
     30 H10        -0.1764   -2.1460   -0.1030 H         1 <0>         0.0000
     31 H11         2.4180    2.0255    0.8802 H         1 <0>         0.0000
     32 H12         0.7559    2.6640    0.8036 H         1 <0>         0.0000
     33 H13         0.8208    1.5337   -1.3436 H         1 <0>         0.0000
     34 H14        -1.6010    0.8575   -1.3045 H         1 <0>         0.0000
     35 H15        -1.3830    1.7723    0.1801 H         1 <0>         0.0000
@<TRIPOS>BOND
     1    1    2 ar
     2    1    3 ar
     3    1   21 1
     4    2    5 ar
     5    2   22 1
     6    3    6 ar
     7    3   23 1
     8    4    5 ar
     9    4    6 ar
    10    4   24 1
    11    5   10 1
    12    6   16 1
    13    7    9 2
    14    7   11 1
    15    7   12 1
    16    8   15 1
    17    8   18 2
    18    8   20 1
    19    9   25 1
    20    9   26 1
    21   10   17 1
    22   10   19 2
    23   11   14 1
    24   11   27 1
    25   11   28 1
    26   12   15 1
    27   12   29 1
    28   12   30 1
    29   13   14 1
    30   13   20 1
    31   13   31 1
    32   13   32 1
    33   14   15 1
    34   14   33 1
    35   15   16 1
    36   16   34 1
    37   16   35 1
