@<TRIPOS>MOLECULE
*****
   18    18     0     0     0
SMALL
NO_CHARGES

@<TRIPOS>ATOM
      1 C1         -1.2260    0.6770    0.4030 C.ar      1 <0>         0.0000
      2 C2         -0.5910    0.8270   -0.8250 C.ar      1 <0>         0.0000
      3 C3         -0.6420   -0.1050    1.3940 C.ar      1 <0>         0.0000
      4 C4          0.6230    0.1910   -1.0640 C.ar      1 <0>         0.0000
      5 C5          0.5730   -0.7400    1.1550 C.ar      1 <0>         0.0000
      6 C6          1.2130   -0.6080   -0.0800 C.ar      1 <0>         0.0000
      7 C7          2.3120   -3.0050   -1.0590 C.3       1 <0>         0.0000
      8 O1          3.4500   -1.6550    0.8460 O.2       1 <0>         0.0000
      9 O2          3.4980   -0.7180   -1.3940 O.2       1 <0>         0.0000
     10 S1          2.7840   -1.4310   -0.3910 S.o2      1 <0>         0.0000
     11 H1         -2.1510    1.1620    0.5860 H         1 <0>         0.0000
     12 H2         -1.0310    1.4310   -1.5780 H         1 <0>         0.0000
     13 H3         -1.1220   -0.2130    2.3340 H         1 <0>         0.0000
     14 H4          1.1110    0.3170   -1.9980 H         1 <0>         0.0000
     15 H5          1.0210   -1.3270    1.9180 H         1 <0>         0.0000
     16 H6          1.7220   -3.5970   -0.3770 H         1 <0>         0.0000
     17 H7          3.1660   -3.6190   -1.3040 H         1 <0>         0.0000
     18 H8          1.7480   -2.9270   -1.9760 H         1 <0>         0.0000
@<TRIPOS>BOND
     1    1    2 ar
     2    1    3 ar
     3    1   11 1
     4    2    4 ar
     5    2   12 1
     6    3    5 ar
     7    3   13 1
     8    4    6 ar
     9    4   14 1
    10    5    6 ar
    11    5   15 1
    12    6   10 1
    13    7   10 1
    14    7   16 1
    15    7   17 1
    16    7   18 1
    17    8   10 2
    18    9   10 2
