@<TRIPOS>MOLECULE
*****
   43    45     0     0     0
SMALL
NO_CHARGES

@<TRIPOS>ATOM
      1 C1          6.7830    3.2513    0.1633 C.ar      1 <0>         0.0000
      2 C2          6.3710    0.6073    0.9142 C.ar      1 <0>         0.0000
      3 C3          7.8003    2.5579    0.8349 C.ar      1 <0>         0.0000
      4 C4          7.5958    1.2248    1.2150 C.ar      1 <0>         0.0000
      5 C5          5.3658    1.3081    0.2453 C.ar      1 <0>         0.0000
      6 C6          5.5712    2.6304   -0.1304 C.ar      1 <0>         0.0000
      7 C7          9.9489    2.6248    1.7168 C.2       1 <0>         0.0000
      8 C8          9.8455    1.1928    2.1744 C.2       1 <0>         0.0000
      9 C9          3.5325   -0.3637    0.7114 C.2       1 <0>         0.0000
     10 C10         3.2976    0.9511   -1.1576 C.2       1 <0>         0.0000
     11 C11        11.2348    3.3479    2.0057 C.3       1 <0>         0.0000
     12 C12         8.5778   -0.9335    3.8182 C.3       1 <0>         0.0000
     13 C13         9.5046   -1.7018    1.6053 C.3       1 <0>         0.0000
     14 C14         1.3167   -1.6279    0.4663 C.3       1 <0>         0.0000
     15 C15         8.4624   -0.8405    2.3036 C.3       1 <0>         0.0000
     16 C16         1.1005   -0.0839   -1.9752 C.3       1 <0>         0.0000
     17 N1          8.9942    3.2386    1.0999 N.2       1 <0>         0.0000
     18 N2          8.6460    0.5469    1.8951 N.am      1 <0>         0.0000
     19 N3          4.1258    0.6635   -0.0523 N.am      1 <0>         0.0000
     20 N4          2.3437   -0.7071    0.0529 N.am      1 <0>         0.0000
     21 N5          2.1894    0.0995   -1.0510 N.am      1 <0>         0.0000
     22 O1         10.8173    0.7183    2.7498 O.2       1 <0>         0.0000
     23 O2          3.9103   -0.8588    1.7658 O.2       1 <0>         0.0000
     24 O3          3.4828    1.7382   -2.0771 O.2       1 <0>         0.0000
     25 F1          4.6151    3.3157   -0.7736 F         1 <0>         0.0000
     26 F2         -0.0774    0.2036   -1.3704 F         1 <0>         0.0000
     27 F3          1.0399   -1.3775   -2.3737 F         1 <0>         0.0000
     28 H1          6.9332    4.2863   -0.1352 H         1 <0>         0.0000
     29 H2          6.1794   -0.4253    1.1948 H         1 <0>         0.0000
     30 H3         11.9213    3.2061    1.1756 H         1 <0>         0.0000
     31 H4         11.6739    2.9513    2.9174 H         1 <0>         0.0000
     32 H5         11.0302    4.4072    2.1366 H         1 <0>         0.0000
     33 H6          9.5728   -0.6230    4.1533 H         1 <0>         0.0000
     34 H7          7.8364   -0.2981    4.3155 H         1 <0>         0.0000
     35 H8          8.4109   -1.9615    4.1581 H         1 <0>         0.0000
     36 H9         10.5163   -1.4045    1.9026 H         1 <0>         0.0000
     37 H10         9.4278   -1.6018    0.5177 H         1 <0>         0.0000
     38 H11         9.3848   -2.7608    1.8600 H         1 <0>         0.0000
     39 H12         0.5615   -1.0930    1.0609 H         1 <0>         0.0000
     40 H13         0.8396   -2.0678   -0.4219 H         1 <0>         0.0000
     41 H14         1.7643   -2.4269    1.0756 H         1 <0>         0.0000
     42 H15         7.4606   -1.1553    1.9916 H         1 <0>         0.0000
     43 H16         1.2351    0.5636   -2.8451 H         1 <0>         0.0000
@<TRIPOS>BOND
     1    1    3 ar
     2    1    6 ar
     3    1   28 1
     4    2    4 ar
     5    2    5 ar
     6    2   29 1
     7    3    4 ar
     8    3   17 1
     9    4   18 1
    10    5    6 ar
    11    5   19 1
    12    6   25 1
    13    7    8 1
    14    7   11 1
    15    7   17 2
    16    8   18 am
    17    8   22 2
    18    9   19 am
    19    9   20 am
    20    9   23 2
    21   10   19 am
    22   10   21 am
    23   10   24 2
    24   11   30 1
    25   11   31 1
    26   11   32 1
    27   12   15 1
    28   12   33 1
    29   12   34 1
    30   12   35 1
    31   13   15 1
    32   13   36 1
    33   13   37 1
    34   13   38 1
    35   14   20 1
    36   14   39 1
    37   14   40 1
    38   14   41 1
    39   15   18 1
    40   15   42 1
    41   16   21 1
    42   16   26 1
    43   16   27 1
    44   16   43 1
    45   20   21 1
