@<TRIPOS>MOLECULE
*****
   50    54     0     0     0
SMALL
NO_CHARGES

@<TRIPOS>ATOM
      1 C1         -5.8486   -2.2950    5.5967 C.ar      1 <0>         0.0000
      2 C2         -6.2853   -2.8767    6.7949 C.ar      1 <0>         0.0000
      3 C3         -4.0736   -2.6314    3.7032 C.2       1 <0>         0.0000
      4 C4         -4.6210   -4.6471    6.6247 C.ar      1 <0>         0.0000
      5 C5         -4.7844   -2.8974    4.9032 C.ar      1 <0>         0.0000
      6 C6         -5.6807   -4.0317    7.2976 C.ar      1 <0>         0.0000
      7 C7         -4.2091   -4.0462    5.4366 C.ar      1 <0>         0.0000
      8 C8         -3.1260   -3.6218    3.5861 C.2       1 <0>         0.0000
      9 C9         -2.0937   -3.8751    2.5482 C.2       1 <0>         0.0000
     10 C10        -5.4723   -4.0814    9.8149 C.2       1 <0>         0.0000
     11 C11        -5.9053   -3.7938   12.3265 C.3       1 <0>         0.0000
     12 C12        -4.8419   -4.8407   12.1834 C.3       1 <0>         0.0000
     13 C13         2.0980   -4.9935    1.0798 C.3       1 <0>         0.0000
     14 C14         1.6646   -5.3241    3.4934 C.3       1 <0>         0.0000
     15 C15         2.1784   -6.5178    0.8893 C.3       1 <0>         0.0000
     16 C16         1.8783   -6.8277    3.2558 C.3       1 <0>         0.0000
     17 C17        -0.0279   -6.8804    1.7966 C.3       1 <0>         0.0000
     18 C18        -5.8824   -4.6811   11.1352 C.3       1 <0>         0.0000
     19 C19         1.1076   -4.6765    2.2132 C.3       1 <0>         0.0000
     20 C20        -0.2283   -5.3520    1.8444 C.3       1 <0>         0.0000
     21 C21        -6.1745   -4.6215    8.5777 C.3       1 <0>         0.0000
     22 N1          1.4030   -7.2449    1.9186 N.3       1 <0>         0.0000
     23 N2         -1.2903   -4.9879    2.7502 N.am      1 <0>         0.0000
     24 O1         -1.9914   -3.0991    1.6016 O.2       1 <0>         0.0000
     25 O2         -4.6131   -3.2024    9.7607 O.2       1 <0>         0.0000
     26 O3         -3.1998   -4.4849    4.6327 O.3       1 <0>         0.0000
     27 H1         -6.3281   -1.3973    5.2183 H         1 <0>         0.0000
     28 H2         -7.1086   -2.4134    7.3340 H         1 <0>         0.0000
     29 H3         -4.2363   -1.8163    3.0116 H         1 <0>         0.0000
     30 H4         -4.1418   -5.5434    7.0019 H         1 <0>         0.0000
     31 H5         -6.6932   -3.9704   13.0486 H         1 <0>         0.0000
     32 H6         -5.6051   -2.7569   12.2366 H         1 <0>         0.0000
     33 H7         -3.8287   -4.5070   11.9953 H         1 <0>         0.0000
     34 H8         -4.9141   -5.7222   12.8087 H         1 <0>         0.0000
     35 H9          3.0889   -4.5913    1.3223 H         1 <0>         0.0000
     36 H10         1.7732   -4.5178    0.1470 H         1 <0>         0.0000
     37 H11         0.9746   -5.1692    4.3309 H         1 <0>         0.0000
     38 H12         2.6161   -4.8536    3.7689 H         1 <0>         0.0000
     39 H13         1.8138   -6.7918   -0.1087 H         1 <0>         0.0000
     40 H14         3.2266   -6.8406    0.9180 H         1 <0>         0.0000
     41 H15         2.9412   -7.0775    3.3648 H         1 <0>         0.0000
     42 H16         1.3609   -7.4055    4.0319 H         1 <0>         0.0000
     43 H17        -0.5958   -7.3884    2.5870 H         1 <0>         0.0000
     44 H18        -0.4266   -7.2751    0.8532 H         1 <0>         0.0000
     45 H19        -6.6365   -5.4312   11.0291 H         1 <0>         0.0000
     46 H20         0.9960   -3.5935    2.3323 H         1 <0>         0.0000
     47 H21        -0.5488   -4.9982    0.8567 H         1 <0>         0.0000
     48 H22        -7.2526   -4.4323    8.6930 H         1 <0>         0.0000
     49 H23        -6.0461   -5.7146    8.5681 H         1 <0>         0.0000
     50 H24        -1.3949   -5.5474    3.5919 H         1 <0>         0.0000
@<TRIPOS>BOND
     1    1    2 ar
     2    1    5 ar
     3    1   27 1
     4    2    6 ar
     5    2   28 1
     6    3    5 1
     7    3    8 2
     8    3   29 1
     9    4    6 ar
    10    4    7 ar
    11    4   30 1
    12    5    7 ar
    13    6   21 1
    14    7   26 1
    15    8    9 1
    16    8   26 1
    17    9   23 am
    18    9   24 2
    19   10   18 1
    20   10   21 1
    21   10   25 2
    22   11   12 1
    23   11   18 1
    24   11   31 1
    25   11   32 1
    26   12   18 1
    27   12   33 1
    28   12   34 1
    29   13   15 1
    30   13   19 1
    31   13   35 1
    32   13   36 1
    33   14   16 1
    34   14   19 1
    35   14   37 1
    36   14   38 1
    37   15   22 1
    38   15   39 1
    39   15   40 1
    40   16   22 1
    41   16   41 1
    42   16   42 1
    43   17   20 1
    44   17   22 1
    45   17   43 1
    46   17   44 1
    47   18   45 1
    48   19   20 1
    49   19   46 1
    50   20   23 1
    51   20   47 1
    52   21   48 1
    53   21   49 1
    54   23   50 1
