@<TRIPOS>MOLECULE
*****
   41    42     0     0     0
SMALL
NO_CHARGES

@<TRIPOS>ATOM
      1 C1         -2.3157    1.8287    1.0946 C.ar      1 <0>         0.0000
      2 C2         -2.0883    2.8868    0.2108 C.ar      1 <0>         0.0000
      3 C3         -1.5228    0.6747    1.0509 C.ar      1 <0>         0.0000
      4 C4         -1.0631    2.8035   -0.7263 C.ar      1 <0>         0.0000
      5 C5         -0.4959    0.5803    0.1138 C.ar      1 <0>         0.0000
      6 C6         -0.2841    1.6533   -0.7592 C.ar      1 <0>         0.0000
      7 C7          1.3335   -0.2372   -1.1382 C.2       1 <0>         0.0000
      8 C8          2.4592   -2.2302   -0.9979 C.2       1 <0>         0.0000
      9 C9          0.3680   -1.6950    0.6854 C.2       1 <0>         0.0000
     10 C10        -1.0117   -5.1261   -1.3125 C.3       1 <0>         0.0000
     11 C11        -1.7321   -6.1095    0.8810 C.3       1 <0>         0.0000
     12 C12         3.6597   -3.4594    0.8316 C.3       1 <0>         0.0000
     13 C13         4.0238   -1.0308    0.5508 C.3       1 <0>         0.0000
     14 C14        -0.5827   -3.8767    0.8433 C.3       1 <0>         0.0000
     15 C15        -1.5305   -4.8168    0.0934 C.3       1 <0>         0.0000
     16 N1          2.2765   -0.9924   -1.5863 N.2       1 <0>         0.0000
     17 N2          0.4222   -0.5097   -0.0893 N.am      1 <0>         0.0000
     18 N3          3.3511   -2.2389    0.0914 N.am      1 <0>         0.0000
     19 O1          1.8962   -3.2604   -1.3766 O.2       1 <0>         0.0000
     20 O2          0.9631   -1.8989    1.7400 O.2       1 <0>         0.0000
     21 O3         -0.4550   -2.6409    0.1293 O.3       1 <0>         0.0000
     22 S1          1.0620    1.3442   -1.8567 S.3       1 <0>         0.0000
     23 H1         -3.1165    1.9024    1.8258 H         1 <0>         0.0000
     24 H2         -2.7110    3.7754    0.2582 H         1 <0>         0.0000
     25 H3         -1.7461   -0.1091    1.7632 H         1 <0>         0.0000
     26 H4         -0.8842    3.6264   -1.4112 H         1 <0>         0.0000
     27 H5         -0.0393   -5.6279   -1.2648 H         1 <0>         0.0000
     28 H6         -0.8906   -4.2101   -1.9009 H         1 <0>         0.0000
     29 H7         -1.6984   -5.7871   -1.8512 H         1 <0>         0.0000
     30 H8         -0.7817   -6.6374    1.0128 H         1 <0>         0.0000
     31 H9         -2.4173   -6.7825    0.3548 H         1 <0>         0.0000
     32 H10        -2.1489   -5.9099    1.8742 H         1 <0>         0.0000
     33 H11         4.5249   -3.9591    0.3714 H         1 <0>         0.0000
     34 H12         3.8958   -3.2052    1.8755 H         1 <0>         0.0000
     35 H13         2.7908   -4.1334    0.8059 H         1 <0>         0.0000
     36 H14         3.4057   -0.5335    1.3129 H         1 <0>         0.0000
     37 H15         4.9985   -1.2968    0.9857 H         1 <0>         0.0000
     38 H16         4.1754   -0.3498   -0.2997 H         1 <0>         0.0000
     39 H17        -0.9739   -3.6521    1.8412 H         1 <0>         0.0000
     40 H18         0.4125   -4.3216    0.9505 H         1 <0>         0.0000
     41 H19        -2.5015   -4.3175   -0.0179 H         1 <0>         0.0000
@<TRIPOS>BOND
     1    1    2 ar
     2    1    3 ar
     3    1   23 1
     4    2    4 ar
     5    2   24 1
     6    3    5 ar
     7    3   25 1
     8    4    6 ar
     9    4   26 1
    10    5    6 ar
    11    5   17 1
    12    6   22 1
    13    7   16 2
    14    7   17 1
    15    7   22 1
    16    8   16 1
    17    8   18 am
    18    8   19 2
    19    9   17 am
    20    9   20 2
    21    9   21 1
    22   10   15 1
    23   10   27 1
    24   10   28 1
    25   10   29 1
    26   11   15 1
    27   11   30 1
    28   11   31 1
    29   11   32 1
    30   12   18 1
    31   12   33 1
    32   12   34 1
    33   12   35 1
    34   13   18 1
    35   13   36 1
    36   13   37 1
    37   13   38 1
    38   14   15 1
    39   14   21 1
    40   14   39 1
    41   14   40 1
    42   15   41 1
