@<TRIPOS>MOLECULE
*****
   28    29     0     0     0
SMALL
NO_CHARGES

@<TRIPOS>ATOM
      1 C1          7.6500   -1.4260   -0.2240 C.ar      1 <0>         0.0000
      2 C2         -2.5570   -2.4920    0.0740 C.ar      1 <0>         0.0000
      3 C3          6.7880   -2.1660    0.5840 C.ar      1 <0>         0.0000
      4 C4          7.1430   -0.4300   -1.0570 C.ar      1 <0>         0.0000
      5 C5         -2.3030   -1.2250    0.5960 C.ar      1 <0>         0.0000
      6 C6         -1.5280   -3.2230   -0.5170 C.ar      1 <0>         0.0000
      7 C7          5.4200   -1.9150    0.5620 C.ar      1 <0>         0.0000
      8 C8          5.7770   -0.1720   -1.0870 C.ar      1 <0>         0.0000
      9 C9         -1.0220   -0.6860    0.5300 C.ar      1 <0>         0.0000
     10 C10        -0.2440   -2.6920   -0.5880 C.ar      1 <0>         0.0000
     11 C11         4.9160   -0.9190   -0.2800 C.ar      1 <0>         0.0000
     12 C12         0.0070   -1.4230   -0.0590 C.ar      1 <0>         0.0000
     13 C13         2.4940   -1.4620   -0.1210 C.2       1 <0>         0.0000
     14 N1          3.5390   -0.6020   -0.3320 N.am      1 <0>         0.0000
     15 N2          1.2840   -0.8200   -0.1210 N.am      1 <0>         0.0000
     16 O1          2.6260   -2.6660    0.0470 O.2       1 <0>         0.0000
     17 H1          8.6920   -1.6210   -0.2040 H         1 <0>         0.0000
     18 H2         -3.5330   -2.9010    0.1270 H         1 <0>         0.0000
     19 H3          7.1760   -2.9220    1.2170 H         1 <0>         0.0000
     20 H4          7.8020    0.1300   -1.6700 H         1 <0>         0.0000
     21 H5         -3.0880   -0.6720    1.0450 H         1 <0>         0.0000
     22 H6         -1.7230   -4.1860   -0.9130 H         1 <0>         0.0000
     23 H7          4.7700   -2.4750    1.1830 H         1 <0>         0.0000
     24 H8          5.3920    0.5820   -1.7230 H         1 <0>         0.0000
     25 H9         -0.8290    0.2750    0.9300 H         1 <0>         0.0000
     26 H10         0.5330   -3.2490   -1.0460 H         1 <0>         0.0000
     27 H11         3.2900    0.3320   -0.6620 H         1 <0>         0.0000
     28 H12         1.3190    0.2000   -0.0600 H         1 <0>         0.0000
@<TRIPOS>BOND
     1    1    3 ar
     2    1    4 ar
     3    1   17 1
     4    2    5 ar
     5    2    6 ar
     6    2   18 1
     7    3    7 ar
     8    3   19 1
     9    4    8 ar
    10    4   20 1
    11    5    9 ar
    12    5   21 1
    13    6   10 ar
    14    6   22 1
    15    7   11 ar
    16    7   23 1
    17    8   11 ar
    18    8   24 1
    19    9   12 ar
    20    9   25 1
    21   10   12 ar
    22   10   26 1
    23   11   14 1
    24   12   15 1
    25   13   14 am
    26   13   15 am
    27   13   16 2
    28   14   27 1
    29   15   28 1
