@<TRIPOS>MOLECULE
*****
   37    40     0     0     0
SMALL
NO_CHARGES

@<TRIPOS>ATOM
      1 C1          0.5883   -3.5442    3.5772 C.ar      1 <0>         0.0000
      2 C2         -0.7307   -3.1490    3.3150 C.ar      1 <0>         0.0000
      3 C3          1.2845   -4.3672    2.6829 C.ar      1 <0>         0.0000
      4 C4          2.6249   -9.3844   -3.1033 C.ar      1 <0>         0.0000
      5 C5          3.2128   -9.8819   -4.2813 C.ar      1 <0>         0.0000
      6 C6         -1.3869   -3.5728    2.1507 C.ar      1 <0>         0.0000
      7 C7          4.4113   -7.7407   -2.8162 C.ar      1 <0>         0.0000
      8 C8          0.6357   -4.7815    1.5176 C.ar      1 <0>         0.0000
      9 C9          3.1996   -8.3341   -2.3706 C.ar      1 <0>         0.0000
     10 C10         4.3927   -9.2901   -4.6878 C.ar      1 <0>         0.0000
     11 C11         4.9746   -8.2428   -3.9651 C.ar      1 <0>         0.0000
     12 C12        -0.6779   -4.3840    1.2794 C.ar      1 <0>         0.0000
     13 C13         1.1158   -5.6386    0.3931 C.2       1 <0>         0.0000
     14 C14         2.5372   -7.8195   -1.1481 C.2       1 <0>         0.0000
     15 C15         6.1807   -8.5681   -5.8255 C.3       1 <0>         0.0000
     16 C16         1.4094   -8.6051   -0.5332 C.3       1 <0>         0.0000
     17 N1          0.2906   -5.8761   -0.5882 N.2       1 <0>         0.0000
     18 N2          3.0182   -6.7134   -0.6722 N.2       1 <0>         0.0000
     19 N3          2.3727   -6.1660    0.4494 N.pl3     1 <0>         0.0000
     20 O1         -2.2189   -6.1464   -0.0405 O.2       1 <0>         0.0000
     21 O2         -1.4456   -4.0852   -1.2842 O.2       1 <0>         0.0000
     22 O3          5.1788   -9.6012   -5.7699 O.3       1 <0>         0.0000
     23 O4          6.1553   -7.8677   -4.5734 O.3       1 <0>         0.0000
     24 S1         -1.1998   -5.1241   -0.2855 S.o2      1 <0>         0.0000
     25 H1          1.0767   -3.2106    4.4883 H         1 <0>         0.0000
     26 H2         -1.2514   -2.5110    4.0234 H         1 <0>         0.0000
     27 H3          2.3017   -4.6737    2.9129 H         1 <0>         0.0000
     28 H4          1.6872   -9.8211   -2.7799 H         1 <0>         0.0000
     29 H5          2.7596  -10.6899   -4.8462 H         1 <0>         0.0000
     30 H6         -2.4105   -3.2783    1.9395 H         1 <0>         0.0000
     31 H7          4.8599   -6.9240   -2.2639 H         1 <0>         0.0000
     32 H8          7.1619   -9.0260   -5.9664 H         1 <0>         0.0000
     33 H9          5.9350   -7.8735   -6.6395 H         1 <0>         0.0000
     34 H10         1.6176   -9.6761   -0.5832 H         1 <0>         0.0000
     35 H11         1.2728   -8.3242    0.5118 H         1 <0>         0.0000
     36 H12         0.4699   -8.3977   -1.0530 H         1 <0>         0.0000
     37 H13         3.0299   -5.6282    1.0028 H         1 <0>         0.0000
@<TRIPOS>BOND
     1    1    2 ar
     2    1    3 ar
     3    1   25 1
     4    2    6 ar
     5    2   26 1
     6    3    8 ar
     7    3   27 1
     8    4    5 ar
     9    4    9 ar
    10    4   28 1
    11    5   10 ar
    12    5   29 1
    13    6   12 ar
    14    6   30 1
    15    7    9 ar
    16    7   11 ar
    17    7   31 1
    18    8   12 ar
    19    8   13 1
    20    9   14 1
    21   10   11 ar
    22   10   22 1
    23   11   23 1
    24   12   24 1
    25   13   17 2
    26   13   19 1
    27   14   16 1
    28   14   18 2
    29   15   22 1
    30   15   23 1
    31   15   32 1
    32   15   33 1
    33   16   34 1
    34   16   35 1
    35   16   36 1
    36   17   24 1
    37   18   19 1
    38   19   37 1
    39   20   24 2
    40   21   24 2
