@<TRIPOS>MOLECULE
*****
   38    40     0     0     0
SMALL
NO_CHARGES

@<TRIPOS>ATOM
      1 C1         -4.1230    3.5517   -8.9134 C.ar      1 <0>         0.0000
      2 C2         -4.1489    2.6323   -9.9673 C.ar      1 <0>         0.0000
      3 C3         -3.2935    3.3218   -7.8160 C.ar      1 <0>         0.0000
      4 C4         -3.3383    1.4956   -9.9329 C.ar      1 <0>         0.0000
      5 C5         -0.7091    1.2426   -4.7558 C.2       1 <0>         0.0000
      6 C6         -2.4837    2.1833   -7.7675 C.ar      1 <0>         0.0000
      7 C7         -2.4982    1.2776   -8.8383 C.ar      1 <0>         0.0000
      8 C8          0.0085    2.3552   -5.3077 C.2       1 <0>         0.0000
      9 C9         -1.7555    1.0526   -5.6495 C.2       1 <0>         0.0000
     10 C10        -0.4576    0.4630   -3.5564 C.2       1 <0>         0.0000
     11 C11         2.1843    0.1037   -1.2419 C.3       1 <0>         0.0000
     12 C12         0.2145   -1.2857   -1.4036 C.3       1 <0>         0.0000
     13 C13         2.9711   -0.9769   -1.9868 C.3       1 <0>         0.0000
     14 C14         1.0397   -2.3320   -2.1595 C.3       1 <0>         0.0000
     15 C15         1.2420    3.0118   -4.7756 C.3       1 <0>         0.0000
     16 N1         -0.5584    2.7929   -6.4309 N.2       1 <0>         0.0000
     17 N2          0.5539    0.7273   -2.7986 N.2       1 <0>         0.0000
     18 N3         -1.6433    1.9822   -6.6412 N.pl3     1 <0>         0.0000
     19 N4          0.7633    0.0645   -1.6151 N.pl3     1 <0>         0.0000
     20 O1          2.4097   -2.2729   -1.7555 O.3       1 <0>         0.0000
     21 Cl1        -1.4466   -0.1182   -8.8329 Cl        1 <0>         0.0000
     22 Cl2        -3.0536   -0.0812   -5.5986 Cl        1 <0>         0.0000
     23 H1         -4.7485    4.4390   -8.9438 H         1 <0>         0.0000
     24 H2         -4.7962    2.7991  -10.8238 H         1 <0>         0.0000
     25 H3         -3.2545    4.0162   -6.9824 H         1 <0>         0.0000
     26 H4         -3.3414    0.7848  -10.7529 H         1 <0>         0.0000
     27 H5         -1.1760   -0.3337   -3.3495 H         1 <0>         0.0000
     28 H6          2.2567   -0.0639   -0.1618 H         1 <0>         0.0000
     29 H7          2.5692    1.0988   -1.4746 H         1 <0>         0.0000
     30 H8         -0.8421   -1.3228   -1.6762 H         1 <0>         0.0000
     31 H9          0.2761   -1.4866   -0.3294 H         1 <0>         0.0000
     32 H10         2.9712   -0.7556   -3.0651 H         1 <0>         0.0000
     33 H11         4.0061   -1.0256   -1.6371 H         1 <0>         0.0000
     34 H12         0.6947   -3.3441   -1.9303 H         1 <0>         0.0000
     35 H13         0.9614   -2.1722   -3.2449 H         1 <0>         0.0000
     36 H14         2.0687    2.2970   -4.7210 H         1 <0>         0.0000
     37 H15         1.5232    3.8434   -5.4261 H         1 <0>         0.0000
     38 H16         1.0793    3.3788   -3.7580 H         1 <0>         0.0000
@<TRIPOS>BOND
     1    1    2 ar
     2    1    3 ar
     3    1   23 1
     4    2    4 ar
     5    2   24 1
     6    3    6 ar
     7    3   25 1
     8    4    7 ar
     9    4   26 1
    10    5    8 1
    11    5    9 2
    12    5   10 1
    13    6    7 ar
    14    6   18 1
    15    7   21 1
    16    8   15 1
    17    8   16 2
    18    9   18 1
    19    9   22 1
    20   10   17 2
    21   10   27 1
    22   11   13 1
    23   11   19 1
    24   11   28 1
    25   11   29 1
    26   12   14 1
    27   12   19 1
    28   12   30 1
    29   12   31 1
    30   13   20 1
    31   13   32 1
    32   13   33 1
    33   14   20 1
    34   14   34 1
    35   14   35 1
    36   15   36 1
    37   15   37 1
    38   15   38 1
    39   16   18 1
    40   17   19 1
