@<TRIPOS>MOLECULE
*****
   32    33     0     0     0
SMALL
NO_CHARGES

@<TRIPOS>ATOM
      1 C1          0.6145    2.3489   -3.6734 C.2       1 <0>         0.0000
      2 C2         -1.1229   -1.6697    1.4140 C.3       1 <0>         0.0000
      3 C3         -1.4755   -1.0579    0.0521 C.3       1 <0>         0.0000
      4 C4         -0.5909    1.1619   -1.1124 C.3       1 <0>         0.0000
      5 C5          0.8835   -0.3593   -0.9569 C.3       1 <0>         0.0000
      6 C6         -0.6373   -0.4346    2.1807 C.3       1 <0>         0.0000
      7 C7         -0.3825   -0.0059   -0.1230 C.3       1 <0>         0.0000
      8 C8          1.1254    4.7192   -3.9333 C.3       1 <0>         0.0000
      9 C9          2.5978    3.3307   -2.5108 C.3       1 <0>         0.0000
     10 C10         0.9685    0.9825   -3.0726 C.3       1 <0>         0.0000
     11 N1          0.7869    0.9583   -1.6308 N.3       1 <0>         0.0000
     12 N2          1.3945    3.4198   -3.3301 N.am      1 <0>         0.0000
     13 O1         -0.3570    2.4460   -4.4305 O.2       1 <0>         0.0000
     14 O2         -0.0632    0.4474    1.1987 O.3       1 <0>         0.0000
     15 H1         -1.9657   -2.1661    1.9026 H         1 <0>         0.0000
     16 H2         -0.3122   -2.3985    1.3050 H         1 <0>         0.0000
     17 H3         -1.5000   -1.7814   -0.7662 H         1 <0>         0.0000
     18 H4         -2.4533   -0.5631    0.0967 H         1 <0>         0.0000
     19 H5         -1.3727    0.9522   -1.8575 H         1 <0>         0.0000
     20 H6         -0.7636    2.1432   -0.6609 H         1 <0>         0.0000
     21 H7          1.8072   -0.5098   -0.3885 H         1 <0>         0.0000
     22 H8          0.7193   -1.2107   -1.6370 H         1 <0>         0.0000
     23 H9         -1.4728    0.0790    2.6759 H         1 <0>         0.0000
     24 H10         0.1251   -0.6611    2.9327 H         1 <0>         0.0000
     25 H11         0.9941    5.4777   -3.1523 H         1 <0>         0.0000
     26 H12         0.2181    4.6502   -4.5312 H         1 <0>         0.0000
     27 H13         1.9606    5.0252   -4.5769 H         1 <0>         0.0000
     28 H14         3.5031    3.2871   -3.1330 H         1 <0>         0.0000
     29 H15         2.5474    2.4641   -1.8537 H         1 <0>         0.0000
     30 H16         2.6646    4.2226   -1.8785 H         1 <0>         0.0000
     31 H17         0.3196    0.2602   -3.5931 H         1 <0>         0.0000
     32 H18         2.0104    0.7233   -3.2995 H         1 <0>         0.0000
@<TRIPOS>BOND
     1    1   10 1
     2    1   12 am
     3    1   13 2
     4    2    3 1
     5    2    6 1
     6    2   15 1
     7    2   16 1
     8    3    7 1
     9    3   17 1
    10    3   18 1
    11    4    7 1
    12    4   11 1
    13    4   19 1
    14    4   20 1
    15    5    7 1
    16    5   11 1
    17    5   21 1
    18    5   22 1
    19    6   14 1
    20    6   23 1
    21    6   24 1
    22    7   14 1
    23    8   12 1
    24    8   25 1
    25    8   26 1
    26    8   27 1
    27    9   12 1
    28    9   28 1
    29    9   29 1
    30    9   30 1
    31   10   11 1
    32   10   31 1
    33   10   32 1
