@<TRIPOS>MOLECULE
*****
   21    21     0     0     0
SMALL
NO_CHARGES

@<TRIPOS>ATOM
      1 C1          2.0559   -0.8019    0.0264 C.ar      1 <0>         0.0000
      2 C2          3.0272   -1.4844    0.7641 C.ar      1 <0>         0.0000
      3 C3          1.0622   -0.0527    0.6630 C.ar      1 <0>         0.0000
      4 C4          1.9974   -0.6829    2.8394 C.ar      1 <0>         0.0000
      5 C5          2.9748   -1.4108    2.1504 C.ar      1 <0>         0.0000
      6 C6          1.0546   -0.0117    2.0514 C.ar      1 <0>         0.0000
      7 C7          1.9446   -0.6492    4.3333 C.3       1 <0>         0.0000
      8 C8          0.9790   -1.7740    6.7920 C.3       1 <0>         0.0000
      9 O1          1.5726   -3.3130    4.6486 O.2       1 <0>         0.0000
     10 O2         -0.4956   -1.8095    4.5257 O.2       1 <0>         0.0000
     11 F1          3.9183   -2.0496    2.8761 F         1 <0>         0.0000
     12 F2          0.1120    0.7242    2.6800 F         1 <0>         0.0000
     13 F3          0.4954   -0.5581    7.0948 F         1 <0>         0.0000
     14 F4          0.2585   -2.7086    7.4084 F         1 <0>         0.0000
     15 F5          2.2562   -1.8450    7.2014 F         1 <0>         0.0000
     16 S1          0.8935   -2.0461    4.9146 S.o2      1 <0>         0.0000
     17 H1          2.0759   -0.8510   -1.0581 H         1 <0>         0.0000
     18 H2          3.8098   -2.0653    0.2879 H         1 <0>         0.0000
     19 H3          0.3042    0.4888    0.1071 H         1 <0>         0.0000
     20 H4          1.4742    0.2605    4.7083 H         1 <0>         0.0000
     21 H5          2.9262   -0.8026    4.7835 H         1 <0>         0.0000
@<TRIPOS>BOND
     1    1    3 ar
     2    1    2 ar
     3    1   17 1
     4    2    5 ar
     5    2   18 1
     6    3    6 ar
     7    3   19 1
     8    4    6 ar
     9    4    5 ar
    10    4    7 1
    11    5   11 1
    12    6   12 1
    13    7   16 1
    14    7   20 1
    15    7   21 1
    16    8   13 1
    17    8   14 1
    18    8   15 1
    19    8   16 1
    20    9   16 2
    21   10   16 2
