@<TRIPOS>MOLECULE
*****
   25    26     0     0     0
SMALL
NO_CHARGES

@<TRIPOS>ATOM
      1 C1         -0.6223    1.3354    1.5944 C.ar      1 <0>         0.0000
      2 C2         -1.6193    1.6584    2.5085 C.ar      1 <0>         0.0000
      3 C3         -0.6797    0.1485    0.8292 C.ar      1 <0>         0.0000
      4 C4         -4.5957   -0.3875    3.1571 C.2       1 <0>         0.0000
      5 C5         -2.6995    0.7664    2.6678 C.ar      1 <0>         0.0000
      6 C6         -3.8973    0.7574    3.4816 C.2       1 <0>         0.0000
      7 C7         -1.7399   -0.7505    0.9418 C.ar      1 <0>         0.0000
      8 C8         -2.7371   -0.4106    1.8704 C.ar      1 <0>         0.0000
      9 C9         -4.3156    1.7467    4.4797 C.2       1 <0>         0.0000
     10 C10        -1.8345   -2.0135    0.1224 C.3       1 <0>         0.0000
     11 N1         -5.5868    1.9272    4.6680 N.2       1 <0>         0.0000
     12 N2         -3.9091   -1.0848    2.1844 N.pl3     1 <0>         0.0000
     13 N3         -3.3194    2.4567    5.1383 N.pl3     1 <0>         0.0000
     14 O1         -5.7799    2.8559    5.7466 O.3       1 <0>         0.0000
     15 H1          0.2176    2.0110    1.4556 H         1 <0>         0.0000
     16 H2         -1.5795    2.5847    3.0731 H         1 <0>         0.0000
     17 H3          0.1202   -0.0673    0.1245 H         1 <0>         0.0000
     18 H4         -5.5337   -0.7458    3.5576 H         1 <0>         0.0000
     19 H5         -1.8563   -2.9072    0.7593 H         1 <0>         0.0000
     20 H6         -2.7433   -2.0260   -0.4927 H         1 <0>         0.0000
     21 H7         -0.9794   -2.1103   -0.5512 H         1 <0>         0.0000
     22 H8         -4.1870   -1.9806    1.8108 H         1 <0>         0.0000
     23 H9         -3.6539    2.9577    5.9546 H         1 <0>         0.0000
     24 H10        -2.4659    1.9355    5.2987 H         1 <0>         0.0000
     25 H11        -6.7451    2.9412    5.7657 H         1 <0>         0.0000
@<TRIPOS>BOND
     1    1    2 ar
     2    1    3 ar
     3    1   15 1
     4    2    5 ar
     5    2   16 1
     6    3    7 ar
     7    3   17 1
     8    4    6 2
     9    4   12 1
    10    4   18 1
    11    5    6 1
    12    5    8 ar
    13    6    9 1
    14    7    8 ar
    15    7   10 1
    16    8   12 1
    17    9   11 2
    18    9   13 1
    19   10   19 1
    20   10   20 1
    21   10   21 1
    22   11   14 1
    23   12   22 1
    24   13   23 1
    25   13   24 1
    26   14   25 1
