@<TRIPOS>MOLECULE
*****
   39    42     0     0     0
SMALL
NO_CHARGES

@<TRIPOS>ATOM
      1 C1          3.2104   -2.5479    5.7231 C.ar      1 <0>         0.0000
      2 C2         -4.1063    2.3083   -3.1212 C.ar      1 <0>         0.0000
      3 C3          1.9501   -1.9916    5.6529 C.ar      1 <0>         0.0000
      4 C4         -2.9790    1.6070   -2.6896 C.ar      1 <0>         0.0000
      5 C5          4.2262   -2.1436    4.8241 C.ar      1 <0>         0.0000
      6 C6          0.1964    0.5787    3.5566 C.ar      1 <0>         0.0000
      7 C7         -4.5058    3.4363   -2.4007 C.ar      1 <0>         0.0000
      8 C8         -2.7794    3.1937   -0.9158 C.ar      1 <0>         0.0000
      9 C9          1.6521   -1.0041    4.6758 C.ar      1 <0>         0.0000
     10 C10        -2.2819    2.0455   -1.5571 C.ar      1 <0>         0.0000
     11 C11         2.6622   -0.5803    3.7518 C.ar      1 <0>         0.0000
     12 C12         0.3788   -0.3703    4.5406 C.ar      1 <0>         0.0000
     13 C13         3.9444   -1.1896    3.8765 C.ar      1 <0>         0.0000
     14 C14         1.2696    0.9023    2.6906 C.ar      1 <0>         0.0000
     15 C15        -0.9649    0.8987    0.4325 C.3       1 <0>         0.0000
     16 C16         0.2548    2.0966   -0.7958 C.3       1 <0>         0.0000
     17 C17        -1.0657    1.3181   -1.0618 C.3       1 <0>         0.0000
     18 C18         1.0558    1.9017    1.5731 C.3       1 <0>         0.0000
     19 N1         -3.8581    3.8796   -1.3130 N.ar      1 <0>         0.0000
     20 N2          2.4696    0.3507    2.7825 N.ar      1 <0>         0.0000
     21 N3          0.4709    1.2585    0.4043 N.3       1 <0>         0.0000
     22 O1         -0.6769   -0.6607    5.3523 O.3       1 <0>         0.0000
     23 F1          4.9139   -0.8088    3.0233 F         1 <0>         0.0000
     24 H1          3.4327   -3.3032    6.4711 H         1 <0>         0.0000
     25 H2         -4.6660    1.9905   -3.9967 H         1 <0>         0.0000
     26 H3          1.1963   -2.3309    6.3607 H         1 <0>         0.0000
     27 H4         -2.6400    0.7237   -3.2272 H         1 <0>         0.0000
     28 H5          5.2223   -2.5729    4.8677 H         1 <0>         0.0000
     29 H6         -0.7669    1.0691    3.4599 H         1 <0>         0.0000
     30 H7         -5.3803    4.0087   -2.7067 H         1 <0>         0.0000
     31 H8         -2.2789    3.5833   -0.0300 H         1 <0>         0.0000
     32 H9         -1.5646    1.5599    1.0796 H         1 <0>         0.0000
     33 H10        -1.1808   -0.1437    0.6869 H         1 <0>         0.0000
     34 H11         1.0454    2.0349   -1.5510 H         1 <0>         0.0000
     35 H12         0.0619    3.1548   -0.5568 H         1 <0>         0.0000
     36 H13        -0.8629    0.4556   -1.7010 H         1 <0>         0.0000
     37 H14         0.4256    2.7384    1.9332 H         1 <0>         0.0000
     38 H15         2.0308    2.3040    1.2870 H         1 <0>         0.0000
     39 H16        -0.4183   -1.3214    6.0132 H         1 <0>         0.0000
@<TRIPOS>BOND
     1    1    3 ar
     2    1    5 ar
     3    1   24 1
     4    2    4 ar
     5    2    7 ar
     6    2   25 1
     7    3    9 ar
     8    3   26 1
     9    4   10 ar
    10    4   27 1
    11    5   13 ar
    12    5   28 1
    13    6   12 ar
    14    6   14 ar
    15    6   29 1
    16    7   19 ar
    17    7   30 1
    18    8   10 ar
    19    8   19 ar
    20    8   31 1
    21    9   11 ar
    22    9   12 ar
    23   10   17 1
    24   11   13 ar
    25   11   20 ar
    26   12   22 1
    27   13   23 1
    28   14   18 1
    29   14   20 ar
    30   15   17 1
    31   15   21 1
    32   15   32 1
    33   15   33 1
    34   16   17 1
    35   16   21 1
    36   16   34 1
    37   16   35 1
    38   17   36 1
    39   18   21 1
    40   18   37 1
    41   18   38 1
    42   22   39 1
