@<TRIPOS>MOLECULE
*****
   43    45     0     0     0
SMALL
NO_CHARGES

@<TRIPOS>ATOM
      1 C1          3.5274    5.1493   -6.8320 C.ar      1 <0>         0.0000
      2 C2          2.4206    5.8383   -6.2926 C.ar      1 <0>         0.0000
      3 C3          3.8982    3.9037   -6.3272 C.ar      1 <0>         0.0000
      4 C4          1.6537    5.3017   -5.2570 C.ar      1 <0>         0.0000
      5 C5          3.1439    3.3674   -5.2795 C.ar      1 <0>         0.0000
      6 C6          2.0298    4.0465   -4.7666 C.ar      1 <0>         0.0000
      7 C7          3.2873    2.1114   -4.5250 C.2       1 <0>         0.0000
      8 C8          1.4920    1.4169   -1.3737 C.2       1 <0>         0.0000
      9 C9         -0.1664   -1.6120   -0.5573 C.3       1 <0>         0.0000
     10 C10         1.2185   -1.0251   -0.8454 C.3       1 <0>         0.0000
     11 C11         0.8657    0.6953    0.8756 C.3       1 <0>         0.0000
     12 C12        -0.5299    0.1397    1.2035 C.3       1 <0>         0.0000
     13 C13        -0.6281   -1.3769    0.8890 C.3       1 <0>         0.0000
     14 C14        -0.9168    0.5118    2.6394 C.3       1 <0>         0.0000
     15 C15         0.1589   -2.2537    1.8736 C.3       1 <0>         0.0000
     16 C16         1.8172    1.0376   -2.8256 C.3       1 <0>         0.0000
     17 N1          1.4006    3.2725   -3.7774 N.pl3     1 <0>         0.0000
     18 N2          2.2800    2.1775   -3.5669 N.am      1 <0>         0.0000
     19 N3          1.2527    0.3971   -0.5034 N.am      1 <0>         0.0000
     20 O1          4.0696    1.1689   -4.6590 O.2       1 <0>         0.0000
     21 O2          1.4329    2.6071   -1.0404 O.2       1 <0>         0.0000
     22 O3         -2.0087   -1.7896    0.8884 O.3       1 <0>         0.0000
     23 H1          4.0922    5.5991   -7.6436 H         1 <0>         0.0000
     24 H2          2.1527    6.8107   -6.6981 H         1 <0>         0.0000
     25 H3          4.7512    3.3573   -6.7195 H         1 <0>         0.0000
     26 H4          0.7955    5.8345   -4.8566 H         1 <0>         0.0000
     27 H5         -0.9016   -1.1487   -1.2241 H         1 <0>         0.0000
     28 H6         -0.1657   -2.6865   -0.7677 H         1 <0>         0.0000
     29 H7          1.9893   -1.5452   -0.2621 H         1 <0>         0.0000
     30 H8          1.4676   -1.1711   -1.8945 H         1 <0>         0.0000
     31 H9          0.8850    1.7778    0.9967 H         1 <0>         0.0000
     32 H10         1.6185    0.2699    1.5530 H         1 <0>         0.0000
     33 H11        -1.2400    0.6250    0.5228 H         1 <0>         0.0000
     34 H12        -0.1953    0.1335    3.3711 H         1 <0>         0.0000
     35 H13        -1.9066    0.1267    2.9077 H         1 <0>         0.0000
     36 H14        -0.9586    1.6000    2.7511 H         1 <0>         0.0000
     37 H15        -0.2425   -2.1658    2.8886 H         1 <0>         0.0000
     38 H16         1.2187   -1.9874    1.9199 H         1 <0>         0.0000
     39 H17         0.0822   -3.3025    1.5725 H         1 <0>         0.0000
     40 H18         0.9229    0.6029   -3.2954 H         1 <0>         0.0000
     41 H19         2.6258    0.3057   -2.8892 H         1 <0>         0.0000
     42 H20         1.2444    3.7309   -2.8767 H         1 <0>         0.0000
     43 H21        -2.3302   -1.7781    1.8036 H         1 <0>         0.0000
@<TRIPOS>BOND
     1    1    2 ar
     2    1    3 ar
     3    1   23 1
     4    2    4 ar
     5    2   24 1
     6    3    5 ar
     7    3   25 1
     8    4    6 ar
     9    4   26 1
    10    5    6 ar
    11    5    7 1
    12    6   17 1
    13    7   18 am
    14    7   20 2
    15    8   16 1
    16    8   19 am
    17    8   21 2
    18    9   10 1
    19    9   13 1
    20    9   27 1
    21    9   28 1
    22   10   19 1
    23   10   29 1
    24   10   30 1
    25   11   12 1
    26   11   19 1
    27   11   31 1
    28   11   32 1
    29   12   13 1
    30   12   14 1
    31   12   33 1
    32   13   15 1
    33   13   22 1
    34   14   34 1
    35   14   35 1
    36   14   36 1
    37   15   37 1
    38   15   38 1
    39   15   39 1
    40   16   18 1
    41   16   40 1
    42   16   41 1
    43   17   18 1
    44   17   42 1
    45   22   43 1
