@<TRIPOS>MOLECULE
*****
   39    42     0     0     0
SMALL
NO_CHARGES

@<TRIPOS>ATOM
      1 C1          3.8962   -1.9314    6.5623 C.ar      1 <0>         0.0000
      2 C2          1.8364    4.9771   -3.4420 C.ar      1 <0>         0.0000
      3 C3          3.1149   -2.3277    5.4958 C.ar      1 <0>         0.0000
      4 C4          1.1853    4.0732   -2.6015 C.ar      1 <0>         0.0000
      5 C5          4.1465   -0.5584    6.8019 C.ar      1 <0>         0.0000
      6 C6          1.2292   -0.6792    2.7158 C.ar      1 <0>         0.0000
      7 C7          3.1831    4.7567   -3.7463 C.ar      1 <0>         0.0000
      8 C8          3.2420    2.8629   -2.4613 C.ar      1 <0>         0.0000
      9 C9          2.5552   -1.3526    4.6317 C.ar      1 <0>         0.0000
     10 C10         1.8939    2.9795   -2.0892 C.ar      1 <0>         0.0000
     11 C11         2.7896    0.0413    4.8478 C.ar      1 <0>         0.0000
     12 C12         1.7389   -1.6841    3.5098 C.ar      1 <0>         0.0000
     13 C13         3.6044    0.3856    5.9621 C.ar      1 <0>         0.0000
     14 C14         1.5315    0.6707    3.0349 C.ar      1 <0>         0.0000
     15 C15         0.2262    2.4177   -0.1226 C.3       1 <0>         0.0000
     16 C16         2.0346    1.3358   -0.0248 C.3       1 <0>         0.0000
     17 C17         1.2399    1.9572   -1.2037 C.3       1 <0>         0.0000
     18 C18         0.9459    1.7872    2.1931 C.3       1 <0>         0.0000
     19 N1          3.8833    3.7188   -3.2679 N.ar      1 <0>         0.0000
     20 N2          2.2884    1.0305    4.0559 N.ar      1 <0>         0.0000
     21 N3          0.8003    1.4084    0.7974 N.3       1 <0>         0.0000
     22 O1          1.5063   -3.0101    3.2866 O.3       1 <0>         0.0000
     23 F1          3.8479    1.6918    6.1966 F         1 <0>         0.0000
     24 H1          4.3276   -2.6721    7.2295 H         1 <0>         0.0000
     25 H2          1.3162    5.8377   -3.8534 H         1 <0>         0.0000
     26 H3          2.9190   -3.3773    5.3058 H         1 <0>         0.0000
     27 H4          0.1383    4.2180   -2.3436 H         1 <0>         0.0000
     28 H5          4.7595   -0.2342    7.6375 H         1 <0>         0.0000
     29 H6          0.6083   -0.8849    1.8474 H         1 <0>         0.0000
     30 H7          3.7226    5.4420   -4.3983 H         1 <0>         0.0000
     31 H8          3.8381    2.0323   -2.0835 H         1 <0>         0.0000
     32 H9          0.4258    3.4527    0.1982 H         1 <0>         0.0000
     33 H10        -0.8437    2.2988   -0.3247 H         1 <0>         0.0000
     34 H11         2.4475    0.3295   -0.1472 H         1 <0>         0.0000
     35 H12         2.8257    2.0110    0.3370 H         1 <0>         0.0000
     36 H13         0.7968    1.1625   -1.8131 H         1 <0>         0.0000
     37 H14        -0.0526    2.0300    2.5812 H         1 <0>         0.0000
     38 H15         1.5746    2.6818    2.3330 H         1 <0>         0.0000
     39 H16         0.9392   -3.1036    2.5035 H         1 <0>         0.0000
@<TRIPOS>BOND
     1    1    3 ar
     2    1    5 ar
     3    1   24 1
     4    2    4 ar
     5    2    7 ar
     6    2   25 1
     7    3    9 ar
     8    3   26 1
     9    4   10 ar
    10    4   27 1
    11    5   13 ar
    12    5   28 1
    13    6   12 ar
    14    6   14 ar
    15    6   29 1
    16    7   19 ar
    17    7   30 1
    18    8   10 ar
    19    8   19 ar
    20    8   31 1
    21    9   11 ar
    22    9   12 ar
    23   10   17 1
    24   11   13 ar
    25   11   20 ar
    26   12   22 1
    27   13   23 1
    28   14   18 1
    29   14   20 ar
    30   15   17 1
    31   15   21 1
    32   15   32 1
    33   15   33 1
    34   16   17 1
    35   16   21 1
    36   16   34 1
    37   16   35 1
    38   17   36 1
    39   18   21 1
    40   18   37 1
    41   18   38 1
    42   22   39 1
