@<TRIPOS>MOLECULE
*****
   21    21     0     0     0
SMALL
NO_CHARGES

@<TRIPOS>ATOM
      1 C1          2.4734   -0.4525   -0.0553 C.ar      1 <0>         0.0000
      2 C2          1.5348    0.3097    0.6419 C.ar      1 <0>         0.0000
      3 C3          2.9202   -1.6791    0.4516 C.ar      1 <0>         0.0000
      4 C4          1.4632   -1.3682    2.3845 C.ar      1 <0>         0.0000
      5 C5          1.0242   -0.1418    1.8699 C.ar      1 <0>         0.0000
      6 C6          2.3999   -2.1080    1.6661 C.ar      1 <0>         0.0000
      7 C7         -1.3190    0.7154    1.8369 C.2       1 <0>         0.0000
      8 C8         -0.0160    0.6820    2.6063 C.3       1 <0>         0.0000
      9 N1         -1.7752    1.7073    1.1537 N.2       1 <0>         0.0000
     10 N2         -2.1008   -0.4399    1.9182 N.pl3     1 <0>         0.0000
     11 O1         -0.9107    2.8427    1.2333 O.3       1 <0>         0.0000
     12 F1          2.8182   -3.2957    2.1789 F         1 <0>         0.0000
     13 H1          2.8654   -0.0936   -1.0031 H         1 <0>         0.0000
     14 H2          1.1874    1.2579    0.2408 H         1 <0>         0.0000
     15 H3          3.6502   -2.2885   -0.0720 H         1 <0>         0.0000
     16 H4          1.0979   -1.7494    3.3343 H         1 <0>         0.0000
     17 H5         -0.2118    0.2529    3.5930 H         1 <0>         0.0000
     18 H6          0.3363    1.7052    2.7404 H         1 <0>         0.0000
     19 H7         -1.5521   -1.2935    1.8622 H         1 <0>         0.0000
     20 H8         -2.8575   -0.4418    1.2397 H         1 <0>         0.0000
     21 H9         -1.4213    3.5100    0.7487 H         1 <0>         0.0000
@<TRIPOS>BOND
     1    1    2 ar
     2    1    3 ar
     3    1   13 1
     4    2    5 ar
     5    2   14 1
     6    3    6 ar
     7    3   15 1
     8    4    5 ar
     9    4    6 ar
    10    4   16 1
    11    5    8 1
    12    6   12 1
    13    7    8 1
    14    7    9 2
    15    7   10 1
    16    8   17 1
    17    8   18 1
    18    9   11 1
    19   10   19 1
    20   10   20 1
    21   11   21 1
