@<TRIPOS>MOLECULE
*****
   25    26     0     0     0
SMALL
NO_CHARGES

@<TRIPOS>ATOM
      1 C1         -0.8309    0.2325    0.5286 C.ar      1 <0>         0.0000
      2 C2         -1.7328   -0.7678    0.8756 C.ar      1 <0>         0.0000
      3 C3         -1.6306    1.6861    2.3061 C.ar      1 <0>         0.0000
      4 C4         -4.1440   -0.6704    3.5860 C.2       1 <0>         0.0000
      5 C5         -2.5719    0.7022    2.6753 C.ar      1 <0>         0.0000
      6 C6         -3.5826    0.5911    3.7155 C.2       1 <0>         0.0000
      7 C7         -0.7644    1.4577    1.2379 C.ar      1 <0>         0.0000
      8 C8         -2.5926   -0.5192    1.9509 C.ar      1 <0>         0.0000
      9 C9         -3.9720    1.6236    4.6759 C.2       1 <0>         0.0000
     10 C10         0.2565    2.4979    0.8315 C.3       1 <0>         0.0000
     11 N1         -4.5992    1.4890    5.8029 N.2       1 <0>         0.0000
     12 N2         -3.5632   -1.3265    2.5277 N.pl3     1 <0>         0.0000
     13 N3         -3.5844    2.9424    4.3604 N.pl3     1 <0>         0.0000
     14 O1         -4.8510    0.1247    6.1288 O.3       1 <0>         0.0000
     15 H1         -0.1503    0.0672   -0.3038 H         1 <0>         0.0000
     16 H2         -1.7623   -1.7087    0.3310 H         1 <0>         0.0000
     17 H3         -1.5669    2.6096    2.8720 H         1 <0>         0.0000
     18 H4         -4.9203   -1.1315    4.1759 H         1 <0>         0.0000
     19 H5          0.1125    2.8132   -0.2085 H         1 <0>         0.0000
     20 H6          0.1901    3.3884    1.4627 H         1 <0>         0.0000
     21 H7          1.2775    2.1069    0.9130 H         1 <0>         0.0000
     22 H8         -3.7886   -2.2678    2.2391 H         1 <0>         0.0000
     23 H9         -3.9884    3.5977    5.0256 H         1 <0>         0.0000
     24 H10        -3.8321    3.1991    3.4084 H         1 <0>         0.0000
     25 H11        -5.2237    0.2068    7.0204 H         1 <0>         0.0000
@<TRIPOS>BOND
     1    1    2 ar
     2    1    7 ar
     3    1   15 1
     4    2    8 ar
     5    2   16 1
     6    3    5 ar
     7    3    7 ar
     8    3   17 1
     9    4    6 2
    10    4   12 1
    11    4   18 1
    12    5    6 1
    13    5    8 ar
    14    6    9 1
    15    7   10 1
    16    8   12 1
    17    9   11 2
    18    9   13 1
    19   10   19 1
    20   10   20 1
    21   10   21 1
    22   11   14 1
    23   12   22 1
    24   13   23 1
    25   13   24 1
    26   14   25 1
