@<TRIPOS>MOLECULE
*****
   37    40     0     0     0
SMALL
NO_CHARGES

@<TRIPOS>ATOM
      1 C1          1.9238   -3.4763   -1.8535 C.ar      1 <0>         0.0000
      2 C2          1.2449   -2.3473   -1.3783 C.ar      1 <0>         0.0000
      3 C3          1.9188   -4.6821   -1.1406 C.ar      1 <0>         0.0000
      4 C4          4.2846  -10.1271   -1.5248 C.ar      1 <0>         0.0000
      5 C5          4.9419  -10.5030   -2.7115 C.ar      1 <0>         0.0000
      6 C6          0.5444   -2.3962   -0.1647 C.ar      1 <0>         0.0000
      7 C7          2.9352   -8.4719   -2.7113 C.ar      1 <0>         0.0000
      8 C8          1.2130   -4.7386    0.0664 C.ar      1 <0>         0.0000
      9 C9          3.3003   -9.1258   -1.5039 C.ar      1 <0>         0.0000
     10 C10         4.5725   -9.8444   -3.8683 C.ar      1 <0>         0.0000
     11 C11         3.5883   -8.8513   -3.8616 C.ar      1 <0>         0.0000
     12 C12         0.5508   -3.5968    0.5245 C.ar      1 <0>         0.0000
     13 C13         1.0223   -5.8405    1.0562 C.2       1 <0>         0.0000
     14 C14         2.6528   -8.7127   -0.2395 C.2       1 <0>         0.0000
     15 C15         4.4143   -9.0069   -5.9407 C.3       1 <0>         0.0000
     16 C16         2.5398   -9.6690    0.9260 C.3       1 <0>         0.0000
     17 N1          0.3236   -5.5886    2.1305 N.2       1 <0>         0.0000
     18 N2          2.1829   -7.5059   -0.2082 N.2       1 <0>         0.0000
     19 N3          1.5480   -7.0908    0.9244 N.pl3     1 <0>         0.0000
     20 O1          0.4322   -3.2265    3.1820 O.2       1 <0>         0.0000
     21 O2         -1.6754   -3.9561    1.9910 O.2       1 <0>         0.0000
     22 O3          5.0203  -10.0469   -5.1510 O.3       1 <0>         0.0000
     23 O4          3.3817   -8.4000   -5.1471 O.3       1 <0>         0.0000
     24 S1         -0.2176   -3.9811    2.1099 S.o2      1 <0>         0.0000
     25 H1          2.4671   -3.4179   -2.7926 H         1 <0>         0.0000
     26 H2          1.2640   -1.4242   -1.9511 H         1 <0>         0.0000
     27 H3          2.4496   -5.5506   -1.5056 H         1 <0>         0.0000
     28 H4          4.5845  -10.6144   -0.6033 H         1 <0>         0.0000
     29 H5          5.7050  -11.2744   -2.7181 H         1 <0>         0.0000
     30 H6          0.0197   -1.5281    0.2228 H         1 <0>         0.0000
     31 H7          2.1541   -7.7207   -2.7197 H         1 <0>         0.0000
     32 H8          5.1735   -8.2542   -6.1893 H         1 <0>         0.0000
     33 H9          3.9720   -9.4466   -6.8372 H         1 <0>         0.0000
     34 H10         3.0716   -9.2911    1.8077 H         1 <0>         0.0000
     35 H11         1.4882   -9.8103    1.2059 H         1 <0>         0.0000
     36 H12         2.9341  -10.6546    0.6865 H         1 <0>         0.0000
     37 H13         1.3515   -7.7240    1.6977 H         1 <0>         0.0000
@<TRIPOS>BOND
     1    1    2 ar
     2    1    3 ar
     3    1   25 1
     4    2    6 ar
     5    2   26 1
     6    3    8 ar
     7    3   27 1
     8    4    5 ar
     9    4    9 ar
    10    4   28 1
    11    5   10 ar
    12    5   29 1
    13    6   12 ar
    14    6   30 1
    15    7    9 ar
    16    7   11 ar
    17    7   31 1
    18    8   12 ar
    19    8   13 1
    20    9   14 1
    21   10   11 ar
    22   10   22 1
    23   11   23 1
    24   12   24 1
    25   13   17 2
    26   13   19 1
    27   14   16 1
    28   14   18 2
    29   15   22 1
    30   15   23 1
    31   15   32 1
    32   15   33 1
    33   16   34 1
    34   16   35 1
    35   16   36 1
    36   17   24 1
    37   18   19 1
    38   19   37 1
    39   20   24 2
    40   21   24 2
