@<TRIPOS>MOLECULE
*****
   43    45     0     0     0
SMALL
NO_CHARGES

@<TRIPOS>ATOM
      1 C1         -8.9078    0.6374    1.1661 C.ar      1 <0>         0.0000
      2 C2         -8.3893    0.2390    2.4163 C.ar      1 <0>         0.0000
      3 C3         -8.0573    0.8359    0.0794 C.ar      1 <0>         0.0000
      4 C4         -7.0248    0.0158    2.6092 C.ar      1 <0>         0.0000
      5 C5         -6.6878    0.6291    0.2698 C.ar      1 <0>         0.0000
      6 C6         -6.1836    0.2081    1.5082 C.ar      1 <0>         0.0000
      7 C7         -5.5480    0.7736   -0.6507 C.2       1 <0>         0.0000
      8 C8         -2.0233    0.7822    0.4510 C.2       1 <0>         0.0000
      9 C9          1.0060   -0.0308   -1.6199 C.3       1 <0>         0.0000
     10 C10        -0.4894    0.2858   -1.4603 C.3       1 <0>         0.0000
     11 C11         0.3531    1.3646    0.6146 C.3       1 <0>         0.0000
     12 C12         1.5522    0.4074    0.8019 C.3       1 <0>         0.0000
     13 C13         1.5828   -0.6583   -0.3370 C.3       1 <0>         0.0000
     14 C14         2.8279    1.2470    0.9412 C.3       1 <0>         0.0000
     15 C15         2.9685   -1.2443   -0.5893 C.3       1 <0>         0.0000
     16 C16        -3.1460    0.1699   -0.3948 C.3       1 <0>         0.0000
     17 N1         -4.7960    0.0011    1.4248 N.pl3     1 <0>         0.0000
     18 N2         -4.4373    0.4951    0.1420 N.am      1 <0>         0.0000
     19 N3         -0.7659    0.7180   -0.0780 N.am      1 <0>         0.0000
     20 O1         -5.5025    1.0509   -1.8498 O.2       1 <0>         0.0000
     21 O2         -2.2600    1.2582    1.5665 O.2       1 <0>         0.0000
     22 O3          0.7734   -1.7944    0.0432 O.3       1 <0>         0.0000
     23 H1         -9.9774    0.7919    1.0569 H         1 <0>         0.0000
     24 H2         -9.0705    0.0950    3.2510 H         1 <0>         0.0000
     25 H3         -8.4310    1.1506   -0.8909 H         1 <0>         0.0000
     26 H4         -6.6366   -0.3034    3.5725 H         1 <0>         0.0000
     27 H5          1.1311   -0.7170   -2.4622 H         1 <0>         0.0000
     28 H6          1.5684    0.8786   -1.8595 H         1 <0>         0.0000
     29 H7         -0.7960    1.0610   -2.1747 H         1 <0>         0.0000
     30 H8         -1.0681   -0.6136   -1.6761 H         1 <0>         0.0000
     31 H9         -0.0148    1.7329    1.5710 H         1 <0>         0.0000
     32 H10         0.6636    2.2369    0.0232 H         1 <0>         0.0000
     33 H11         1.4120   -0.1557    1.7321 H         1 <0>         0.0000
     34 H12         3.0711    1.7662    0.0068 H         1 <0>         0.0000
     35 H13         3.6895    0.6391    1.2260 H         1 <0>         0.0000
     36 H14         2.6923    2.0117    1.7141 H         1 <0>         0.0000
     37 H15         3.3986   -1.6315    0.3388 H         1 <0>         0.0000
     38 H16         3.6506   -0.5024   -1.0126 H         1 <0>         0.0000
     39 H17         2.8812   -2.0770   -1.2931 H         1 <0>         0.0000
     40 H18        -3.0053   -0.9202   -0.4470 H         1 <0>         0.0000
     41 H19        -3.1441    0.5556   -1.4172 H         1 <0>         0.0000
     42 H20        -4.2273    0.4853    2.1230 H         1 <0>         0.0000
     43 H21        -0.0442   -1.4546    0.4420 H         1 <0>         0.0000
@<TRIPOS>BOND
     1    1    2 ar
     2    1    3 ar
     3    1   23 1
     4    2    4 ar
     5    2   24 1
     6    3    5 ar
     7    3   25 1
     8    4    6 ar
     9    4   26 1
    10    5    6 ar
    11    5    7 1
    12    6   17 1
    13    7   18 am
    14    7   20 2
    15    8   16 1
    16    8   19 am
    17    8   21 2
    18    9   10 1
    19    9   13 1
    20    9   27 1
    21    9   28 1
    22   10   19 1
    23   10   29 1
    24   10   30 1
    25   11   12 1
    26   11   19 1
    27   11   31 1
    28   11   32 1
    29   12   13 1
    30   12   14 1
    31   12   33 1
    32   13   15 1
    33   13   22 1
    34   14   34 1
    35   14   35 1
    36   14   36 1
    37   15   37 1
    38   15   38 1
    39   15   39 1
    40   16   18 1
    41   16   40 1
    42   16   41 1
    43   17   18 1
    44   17   42 1
    45   22   43 1
