@<TRIPOS>MOLECULE
*****
   34    36     0     0     0
SMALL
NO_CHARGES

@<TRIPOS>ATOM
      1 C1         -1.7847   -1.4021   -1.0786 C.2       1 <0>         0.0000
      2 C2         -1.2263    1.0964   -3.5786 C.3       1 <0>         0.0000
      3 C3         -2.3412    0.5525   -4.4498 C.3       1 <0>         0.0000
      4 C4          0.8543   -1.1172    1.0245 C.3       1 <0>         0.0000
      5 C5         -0.0793    1.2038    0.8685 C.3       1 <0>         0.0000
      6 C6         -0.6494   -1.4540    1.0863 C.3       1 <0>         0.0000
      7 C7         -1.4012    0.7246    0.2225 C.3       1 <0>         0.0000
      8 C8          2.4869    0.8978    0.6807 C.3       1 <0>         0.0000
      9 C9          1.4465    0.4031   -1.0440 C.3       1 <0>         0.0000
     10 C10        -1.7553   -0.3053   -3.3533 C.3       1 <0>         0.0000
     11 C11         1.0820    0.2938    0.4605 C.3       1 <0>         0.0000
     12 C12        -2.5988   -0.6596   -2.1376 C.3       1 <0>         0.0000
     13 N1         -1.3854   -0.7308    0.0486 N.am      1 <0>         0.0000
     14 O1         -1.5243   -2.5974   -1.2488 O.2       1 <0>         0.0000
     15 O2          2.6754    1.1157   -0.7406 O.3       1 <0>         0.0000
     16 H1         -0.2393    1.2120   -4.0170 H         1 <0>         0.0000
     17 H2         -1.4898    1.8721   -2.8642 H         1 <0>         0.0000
     18 H3         -3.3390    0.9554   -4.2961 H         1 <0>         0.0000
     19 H4         -2.1136    0.2984   -5.4809 H         1 <0>         0.0000
     20 H5          1.2783   -1.1804    2.0347 H         1 <0>         0.0000
     21 H6          1.3824   -1.8518    0.4089 H         1 <0>         0.0000
     22 H7          0.1126    2.2381    0.5641 H         1 <0>         0.0000
     23 H8         -0.1656    1.2072    1.9618 H         1 <0>         0.0000
     24 H9         -0.8275   -2.5190    0.9488 H         1 <0>         0.0000
     25 H10        -1.0679   -1.1594    2.0563 H         1 <0>         0.0000
     26 H11        -2.2564    1.0317    0.8406 H         1 <0>         0.0000
     27 H12        -1.5117    1.1954   -0.7518 H         1 <0>         0.0000
     28 H13         2.5339    1.8355    1.2486 H         1 <0>         0.0000
     29 H14         3.2264    0.1908    1.0804 H         1 <0>         0.0000
     30 H15         1.6442   -0.5560   -1.5383 H         1 <0>         0.0000
     31 H16         0.7793    1.0020   -1.6715 H         1 <0>         0.0000
     32 H17        -1.1097   -1.1163   -3.6805 H         1 <0>         0.0000
     33 H18        -3.3727   -1.3712   -2.4416 H         1 <0>         0.0000
     34 H19        -3.1064    0.2276   -1.7483 H         1 <0>         0.0000
@<TRIPOS>BOND
     1    1   12 1
     2    1   13 am
     3    1   14 2
     4    2    3 1
     5    2   10 1
     6    2   16 1
     7    2   17 1
     8    3   10 1
     9    3   18 1
    10    3   19 1
    11    4    6 1
    12    4   11 1
    13    4   20 1
    14    4   21 1
    15    5    7 1
    16    5   11 1
    17    5   22 1
    18    5   23 1
    19    6   13 1
    20    6   24 1
    21    6   25 1
    22    7   13 1
    23    7   26 1
    24    7   27 1
    25    8   11 1
    26    8   15 1
    27    8   28 1
    28    8   29 1
    29    9   11 1
    30    9   15 1
    31    9   30 1
    32    9   31 1
    33   10   12 1
    34   10   32 1
    35   12   33 1
    36   12   34 1
