@<TRIPOS>MOLECULE
*****
   43    45     0     0     0
SMALL
NO_CHARGES

@<TRIPOS>ATOM
      1 C1         -4.3998   -6.0283    3.0447 C.ar      1 <0>         0.0000
      2 C2         -5.0364   -5.0923    3.8874 C.ar      1 <0>         0.0000
      3 C3         -3.1523   -5.7462    2.4906 C.ar      1 <0>         0.0000
      4 C4         -4.4444   -3.8698    4.2079 C.ar      1 <0>         0.0000
      5 C5         -2.5574   -4.5183    2.7965 C.ar      1 <0>         0.0000
      6 C6         -3.1908   -3.5996    3.6484 C.ar      1 <0>         0.0000
      7 C7         -1.3015   -3.9065    2.3318 C.2       1 <0>         0.0000
      8 C8         -0.9934   -0.5511    1.9139 C.2       1 <0>         0.0000
      9 C9         -0.1258    1.4862   -0.7887 C.3       1 <0>         0.0000
     10 C10        -1.2626    0.6437   -0.1999 C.3       1 <0>         0.0000
     11 C11         0.1712   -1.3383   -0.1857 C.3       1 <0>         0.0000
     12 C12         1.3863   -0.5609   -0.7196 C.3       1 <0>         0.0000
     13 C13         0.8917    0.6415   -1.5720 C.3       1 <0>         0.0000
     14 C14         2.3423   -0.1800    0.4197 C.3       1 <0>         0.0000
     15 C15         2.0409    1.5139   -2.0846 C.3       1 <0>         0.0000
     16 C16        -0.3147   -1.6315    2.7677 C.3       1 <0>         0.0000
     17 N1         -2.3694   -2.4789    3.8511 N.pl3     1 <0>         0.0000
     18 N2         -1.2569   -2.6965    3.0023 N.am      1 <0>         0.0000
     19 N3         -0.6984   -0.4532    0.5953 N.am      1 <0>         0.0000
     20 O1         -0.4353   -4.3065    1.5462 O.2       1 <0>         0.0000
     21 O2         -1.8364    0.1660    2.4799 O.2       1 <0>         0.0000
     22 O3          0.1482    0.1300   -2.7031 O.3       1 <0>         0.0000
     23 H1         -4.8915   -6.9725    2.8286 H         1 <0>         0.0000
     24 H2         -6.0116   -5.3311    4.3036 H         1 <0>         0.0000
     25 H3         -2.6467   -6.4470    1.8324 H         1 <0>         0.0000
     26 H4         -4.9363   -3.1605    4.8677 H         1 <0>         0.0000
     27 H5         -0.5436    2.2404   -1.4635 H         1 <0>         0.0000
     28 H6          0.3884    2.0153    0.0200 H         1 <0>         0.0000
     29 H7         -1.9040    1.2392    0.4480 H         1 <0>         0.0000
     30 H8         -1.8713    0.2177   -1.0043 H         1 <0>         0.0000
     31 H9         -0.4193   -1.7119   -1.0282 H         1 <0>         0.0000
     32 H10         0.4682   -2.2092    0.3950 H         1 <0>         0.0000
     33 H11         1.9260   -1.2358   -1.3999 H         1 <0>         0.0000
     34 H12         1.8724    0.5047    1.1325 H         1 <0>         0.0000
     35 H13         3.2528    0.2960    0.0470 H         1 <0>         0.0000
     36 H14         2.6459   -1.0763    0.9714 H         1 <0>         0.0000
     37 H15         2.7899    0.9075   -2.6098 H         1 <0>         0.0000
     38 H16         2.5485    2.0438   -1.2742 H         1 <0>         0.0000
     39 H17         1.6482    2.2559   -2.7861 H         1 <0>         0.0000
     40 H18        -0.0507   -1.1637    3.7200 H         1 <0>         0.0000
     41 H19         0.5735   -2.0854    2.3345 H         1 <0>         0.0000
     42 H20        -2.7819   -1.5610    3.6615 H         1 <0>         0.0000
     43 H21         0.7596   -0.3839   -3.2551 H         1 <0>         0.0000
@<TRIPOS>BOND
     1    1    2 ar
     2    1    3 ar
     3    1   23 1
     4    2    4 ar
     5    2   24 1
     6    3    5 ar
     7    3   25 1
     8    4    6 ar
     9    4   26 1
    10    5    6 ar
    11    5    7 1
    12    6   17 1
    13    7   18 am
    14    7   20 2
    15    8   16 1
    16    8   19 am
    17    8   21 2
    18    9   10 1
    19    9   13 1
    20    9   27 1
    21    9   28 1
    22   10   19 1
    23   10   29 1
    24   10   30 1
    25   11   12 1
    26   11   19 1
    27   11   31 1
    28   11   32 1
    29   12   13 1
    30   12   14 1
    31   12   33 1
    32   13   15 1
    33   13   22 1
    34   14   34 1
    35   14   35 1
    36   14   36 1
    37   15   37 1
    38   15   38 1
    39   15   39 1
    40   16   18 1
    41   16   40 1
    42   16   41 1
    43   17   18 1
    44   17   42 1
    45   22   43 1
