@<TRIPOS>MOLECULE
*****
   21    21     0     0     0
SMALL
NO_CHARGES

@<TRIPOS>ATOM
      1 C1          1.7450   -1.0385    0.6660 C.ar      1 <0>         0.0000
      2 C2          0.6738   -0.4601    1.3470 C.ar      1 <0>         0.0000
      3 C3          2.6872   -1.8216    1.3445 C.ar      1 <0>         0.0000
      4 C4          1.4655   -1.4339    3.4163 C.ar      1 <0>         0.0000
      5 C5          0.5280   -0.6515    2.7302 C.ar      1 <0>         0.0000
      6 C6          2.5297   -2.0080    2.7163 C.ar      1 <0>         0.0000
      7 C7         -1.9478   -0.7058    3.0275 C.2       1 <0>         0.0000
      8 C8         -0.6565   -0.0447    3.4594 C.3       1 <0>         0.0000
      9 N1         -2.8131   -0.2193    2.2068 N.2       1 <0>         0.0000
     10 N2         -2.2205   -1.9454    3.6110 N.pl3     1 <0>         0.0000
     11 O1         -2.4362    1.0853    1.7595 O.3       1 <0>         0.0000
     12 Br1         3.8027   -3.0811    3.6729 Br        1 <0>         0.0000
     13 H1          1.8553   -0.8841   -0.4042 H         1 <0>         0.0000
     14 H2         -0.0597    0.1402    0.8154 H         1 <0>         0.0000
     15 H3          3.5211   -2.2735    0.8176 H         1 <0>         0.0000
     16 H4          1.3733   -1.5878    4.4877 H         1 <0>         0.0000
     17 H5         -0.5468   -0.1768    4.5394 H         1 <0>         0.0000
     18 H6         -0.7244    1.0233    3.2489 H         1 <0>         0.0000
     19 H7         -1.3978   -2.5371    3.6877 H         1 <0>         0.0000
     20 H8         -2.9837   -2.4312    3.1481 H         1 <0>         0.0000
     21 H9         -3.2116    1.3430    1.2367 H         1 <0>         0.0000
@<TRIPOS>BOND
     1    1    2 ar
     2    1    3 ar
     3    1   13 1
     4    2    5 ar
     5    2   14 1
     6    3    6 ar
     7    3   15 1
     8    4    5 ar
     9    4    6 ar
    10    4   16 1
    11    5    8 1
    12    6   12 1
    13    7    8 1
    14    7    9 2
    15    7   10 1
    16    8   17 1
    17    8   18 1
    18    9   11 1
    19   10   19 1
    20   10   20 1
    21   11   21 1
