@<TRIPOS>MOLECULE
*****
   34    37     0     0     0
SMALL
NO_CHARGES

@<TRIPOS>ATOM
      1 C1          5.4179   -6.0395    2.0159 C.ar      1 <0>         0.0000
      2 C2          6.5176   -6.8369    1.6702 C.ar      1 <0>         0.0000
      3 C3          4.2318   -6.0882    1.2733 C.ar      1 <0>         0.0000
      4 C4          6.4541   -7.7033    0.5705 C.ar      1 <0>         0.0000
      5 C5         -1.7529   -6.5008   -2.6848 C.ar      1 <0>         0.0000
      6 C6         -2.0687   -8.1978   -4.9561 C.ar      1 <0>         0.0000
      7 C7          4.1663   -6.9511    0.1765 C.ar      1 <0>         0.0000
      8 C8         -0.6829   -7.3415   -3.1008 C.ar      1 <0>         0.0000
      9 C9         -2.9212   -6.5358   -3.4032 C.ar      1 <0>         0.0000
     10 C10        -3.0790   -7.3668   -4.5173 C.ar      1 <0>         0.0000
     11 C11         5.2703   -7.7345   -0.1492 C.ar      1 <0>         0.0000
     12 C12        -0.8657   -8.1692   -4.2251 C.ar      1 <0>         0.0000
     13 C13         3.0545   -7.2161   -0.7894 C.2       1 <0>         0.0000
     14 C14         0.5825   -7.3388   -2.3655 C.2       1 <0>         0.0000
     15 C15        -4.9973   -6.2336   -4.2189 C.3       1 <0>         0.0000
     16 N1          3.2694   -8.0891   -1.7369 N.2       1 <0>         0.0000
     17 N2          0.7095   -6.5604   -1.3387 N.2       1 <0>         0.0000
     18 N3          1.8873   -6.5390   -0.6310 N.pl3     1 <0>         0.0000
     19 O1          5.6434   -8.2948   -2.7517 O.2       1 <0>         0.0000
     20 O2          4.7781  -10.1370   -1.2499 O.2       1 <0>         0.0000
     21 O3         -4.0795   -5.8199   -3.1946 O.3       1 <0>         0.0000
     22 O4         -4.3310   -7.2080   -5.0478 O.3       1 <0>         0.0000
     23 S1          4.8466   -8.7199   -1.6022 S.o2      1 <0>         0.0000
     24 Cl1         0.4166   -9.2288   -4.7878 Cl        1 <0>         0.0000
     25 H1          5.4858   -5.3741    2.8716 H         1 <0>         0.0000
     26 H2          7.4277   -6.7827    2.2607 H         1 <0>         0.0000
     27 H3          3.3949   -5.4583    1.5645 H         1 <0>         0.0000
     28 H4          7.2986   -8.3264    0.2918 H         1 <0>         0.0000
     29 H5         -1.6227   -5.8597   -1.8208 H         1 <0>         0.0000
     30 H6         -2.1891   -8.8422   -5.8192 H         1 <0>         0.0000
     31 H7          1.3789   -7.9923   -2.7055 H         1 <0>         0.0000
     32 H8         -5.8753   -6.6973   -3.7576 H         1 <0>         0.0000
     33 H9         -5.2726   -5.3703   -4.8331 H         1 <0>         0.0000
     34 H10         1.8364   -5.8871    0.1385 H         1 <0>         0.0000
@<TRIPOS>BOND
     1    1    2 ar
     2    1    3 ar
     3    1   25 1
     4    2    4 ar
     5    2   26 1
     6    3    7 ar
     7    3   27 1
     8    4   11 ar
     9    4   28 1
    10    5    8 ar
    11    5    9 ar
    12    5   29 1
    13    6   10 ar
    14    6   12 ar
    15    6   30 1
    16    7   11 ar
    17    7   13 1
    18    8   12 ar
    19    8   14 1
    20    9   10 ar
    21    9   21 1
    22   10   22 1
    23   11   23 1
    24   12   24 1
    25   13   16 2
    26   13   18 1
    27   14   17 2
    28   14   31 1
    29   15   21 1
    30   15   22 1
    31   15   32 1
    32   15   33 1
    33   16   23 1
    34   17   18 1
    35   18   34 1
    36   19   23 2
    37   20   23 2
