@<TRIPOS>MOLECULE
*****
   42    45     0     0     0
SMALL
NO_CHARGES

@<TRIPOS>ATOM
      1 C1         -3.2227   -0.4741   -2.2781 C.ar      1 <0>         0.0000
      2 C2         -2.2850   -0.4611   -1.2400 C.ar      1 <0>         0.0000
      3 C3         -4.0358   -1.6007   -2.4743 C.ar      1 <0>         0.0000
      4 C4         -2.1268   -1.5585   -0.3818 C.ar      1 <0>         0.0000
      5 C5         -4.0138   -4.7168    3.5608 C.ar      1 <0>         0.0000
      6 C6         -4.5785   -6.7754    2.4426 C.ar      1 <0>         0.0000
      7 C7         -3.8893   -2.6959   -1.6314 C.ar      1 <0>         0.0000
      8 C8         -3.6960   -5.7062    2.6251 C.ar      1 <0>         0.0000
      9 C9         -2.9390   -2.6757   -0.5988 C.ar      1 <0>         0.0000
     10 C10        -5.1878   -4.7865    4.3119 C.ar      1 <0>         0.0000
     11 C11        -6.0703   -5.8822    4.1606 C.ar      1 <0>         0.0000
     12 C12        -5.7432   -6.8566    3.2063 C.ar      1 <0>         0.0000
     13 C13        -2.2285   -4.2102    1.2170 C.2       1 <0>         0.0000
     14 C14        -4.6662   -3.9922   -1.5907 C.3       1 <0>         0.0000
     15 C15        -7.4922   -4.1662    6.4398 C.3       1 <0>         0.0000
     16 C16        -3.8507   -4.8640   -0.6104 C.3       1 <0>         0.0000
     17 C17        -6.7743   -3.3387    5.3741 C.3       1 <0>         0.0000
     18 C18        -7.1794   -5.6518    6.2611 C.3       1 <0>         0.0000
     19 C19        -2.4196   -5.6065    1.8078 C.3       1 <0>         0.0000
     20 N1         -2.9701   -3.9075    0.1035 N.am      1 <0>         0.0000
     21 O1         -1.4711   -3.4003    1.7549 O.2       1 <0>         0.0000
     22 O2         -5.4082   -3.7652    5.2069 O.3       1 <0>         0.0000
     23 O3         -7.2321   -6.0326    4.8714 O.3       1 <0>         0.0000
     24 Cl1        -6.8204   -8.2198    2.9796 Cl        1 <0>         0.0000
     25 H1         -3.3230    0.3884   -2.9313 H         1 <0>         0.0000
     26 H2         -1.6602    0.4158   -1.0911 H         1 <0>         0.0000
     27 H3         -4.7730   -1.6163   -3.2739 H         1 <0>         0.0000
     28 H4         -1.4050   -1.5511    0.4230 H         1 <0>         0.0000
     29 H5         -3.3642   -3.8588    3.7073 H         1 <0>         0.0000
     30 H6         -4.3645   -7.5569    1.7197 H         1 <0>         0.0000
     31 H7         -5.6791   -3.8195   -1.2089 H         1 <0>         0.0000
     32 H8         -4.7607   -4.4677   -2.5706 H         1 <0>         0.0000
     33 H9         -7.1789   -3.8597    7.4441 H         1 <0>         0.0000
     34 H10        -8.5696   -3.9840    6.3576 H         1 <0>         0.0000
     35 H11        -4.4862   -5.3996    0.0942 H         1 <0>         0.0000
     36 H12        -3.2348   -5.5918   -1.1520 H         1 <0>         0.0000
     37 H13        -7.2931   -3.4064    4.4127 H         1 <0>         0.0000
     38 H14        -6.7179   -2.2860    5.6602 H         1 <0>         0.0000
     39 H15        -6.1909   -5.8949    6.6628 H         1 <0>         0.0000
     40 H16        -7.9191   -6.2797    6.7627 H         1 <0>         0.0000
     41 H17        -1.5487   -5.7736    2.4467 H         1 <0>         0.0000
     42 H18        -2.4150   -6.3753    1.0298 H         1 <0>         0.0000
@<TRIPOS>BOND
     1    1    2 ar
     2    1    3 ar
     3    1   25 1
     4    2    4 ar
     5    2   26 1
     6    3    7 ar
     7    3   27 1
     8    4    9 ar
     9    4   28 1
    10    5    8 ar
    11    5   10 ar
    12    5   29 1
    13    6    8 ar
    14    6   12 ar
    15    6   30 1
    16    7    9 ar
    17    7   14 1
    18    8   19 1
    19    9   20 1
    20   10   11 ar
    21   10   22 1
    22   11   12 ar
    23   11   23 1
    24   12   24 1
    25   13   19 1
    26   13   20 am
    27   13   21 2
    28   14   16 1
    29   14   31 1
    30   14   32 1
    31   15   17 1
    32   15   18 1
    33   15   33 1
    34   15   34 1
    35   16   20 1
    36   16   35 1
    37   16   36 1
    38   17   22 1
    39   17   37 1
    40   17   38 1
    41   18   23 1
    42   18   39 1
    43   18   40 1
    44   19   41 1
    45   19   42 1
