@<TRIPOS>MOLECULE
*****
   25    26     0     0     0
SMALL
NO_CHARGES

@<TRIPOS>ATOM
      1 C1         -3.3942   -1.5697   -6.3851 C.ar      1 <0>         0.0000
      2 C2         -4.1354   -0.5913   -7.0623 C.ar      1 <0>         0.0000
      3 C3         -2.9004    1.1380   -5.8599 C.ar      1 <0>         0.0000
      4 C4         -2.1589    0.1588   -5.1865 C.ar      1 <0>         0.0000
      5 C5         -2.4280   -1.1931   -5.4688 C.ar      1 <0>         0.0000
      6 C6         -3.8729    0.7462   -6.7864 C.ar      1 <0>         0.0000
      7 C7          2.4439    2.1367   -2.7523 C.3       1 <0>         0.0000
      8 C8          1.7300    3.4291   -2.3364 C.3       1 <0>         0.0000
      9 C9          0.2327    1.7680   -2.9429 C.3       1 <0>         0.0000
     10 C10        -0.8966    1.7654   -3.9561 C.3       1 <0>         0.0000
     11 O1          1.4663    1.4883   -3.5697 O.3       1 <0>         0.0000
     12 O2          0.3360    3.0773   -2.3796 O.3       1 <0>         0.0000
     13 O3         -1.1872    0.4044   -4.2696 O.3       1 <0>         0.0000
     14 F1         -1.7165   -2.1409   -4.8183 F         1 <0>         0.0000
     15 Br1        -4.8667    2.1091   -7.7029 Br        1 <0>         0.0000
     16 H1         -3.5630   -2.6268   -6.5664 H         1 <0>         0.0000
     17 H2         -4.8938   -0.8742   -7.7834 H         1 <0>         0.0000
     18 H3         -2.7290    2.1903   -5.6736 H         1 <0>         0.0000
     19 H4          3.3402    2.2963   -3.3539 H         1 <0>         0.0000
     20 H5          2.6911    1.5130   -1.8821 H         1 <0>         0.0000
     21 H6          1.9900    3.7557   -1.3252 H         1 <0>         0.0000
     22 H7          1.9137    4.2459   -3.0431 H         1 <0>         0.0000
     23 H8          0.0368    1.0378   -2.1417 H         1 <0>         0.0000
     24 H9         -0.5778    2.3175   -4.8473 H         1 <0>         0.0000
     25 H10        -1.7714    2.2541   -3.5116 H         1 <0>         0.0000
@<TRIPOS>BOND
     1    1    2 ar
     2    1    5 ar
     3    1   16 1
     4    2    6 ar
     5    2   17 1
     6    3    4 ar
     7    3    6 ar
     8    3   18 1
     9    4    5 ar
    10    4   13 1
    11    5   14 1
    12    6   15 1
    13    7    8 1
    14    7   11 1
    15    7   19 1
    16    7   20 1
    17    8   12 1
    18    8   21 1
    19    8   22 1
    20    9   10 1
    21    9   12 1
    22    9   11 1
    23    9   23 1
    24   10   13 1
    25   10   24 1
    26   10   25 1
