@<TRIPOS>MOLECULE
*****
   43    46     0     0     0
SMALL
NO_CHARGES

@<TRIPOS>ATOM
      1 C1         -3.5250   -4.6307   -4.3218 C.ar      1 <0>         0.0000
      2 C2         -4.4093   -5.2511   -5.1796 C.ar      1 <0>         0.0000
      3 C3         -4.8978   -6.9580   -3.5000 C.ar      1 <0>         0.0000
      4 C4         -2.8300   -6.1303   -0.5017 C.ar      1 <0>         0.0000
      5 C5         -3.9885   -6.3226   -2.6167 C.ar      1 <0>         0.0000
      6 C6         -3.2874   -5.1446   -3.0184 C.ar      1 <0>         0.0000
      7 C7         -3.7254   -6.8064   -1.3022 C.ar      1 <0>         0.0000
      8 C8         -5.0828   -6.4121   -4.7462 C.ar      1 <0>         0.0000
      9 C9         -2.1875   -4.9634   -1.0026 C.ar      1 <0>         0.0000
     10 C10         0.6642    0.8638   -0.0001 C.3       1 <0>         0.0000
     11 C11         0.3776    0.4749   -2.3374 C.3       1 <0>         0.0000
     12 C12        -0.2798   -2.4573   -1.6401 C.3       1 <0>         0.0000
     13 C13        -0.0493   -2.1168    0.4348 C.3       1 <0>         0.0000
     14 C14         0.1423    2.2842   -0.1937 C.3       1 <0>         0.0000
     15 C15        -0.1387    1.9022   -2.4899 C.3       1 <0>         0.0000
     16 C16         0.5138   -1.4046   -0.8234 C.3       1 <0>         0.0000
     17 C17        -1.1717   -4.2620   -0.1210 C.3       1 <0>         0.0000
     18 N1         -2.3993   -4.4872   -2.2137 N.ar      1 <0>         0.0000
     19 N2          0.0655   -0.0296   -0.9964 N.3       1 <0>         0.0000
     20 N3         -1.0097   -2.8561   -0.4133 N.3       1 <0>         0.0000
     21 O1          0.4214    2.7699   -1.5054 O.3       1 <0>         0.0000
     22 O2         -4.3971   -7.9287   -0.9122 O.3       1 <0>         0.0000
     23 F1         -5.9482   -7.0019   -5.6120 F         1 <0>         0.0000
     24 H1         -2.9894   -3.7339   -4.6172 H         1 <0>         0.0000
     25 H2         -4.6016   -4.8695   -6.1778 H         1 <0>         0.0000
     26 H3         -5.4337   -7.8516   -3.2002 H         1 <0>         0.0000
     27 H4         -2.6165   -6.4728    0.5094 H         1 <0>         0.0000
     28 H5          1.7691    0.8690   -0.0755 H         1 <0>         0.0000
     29 H6          0.3998    0.5200    1.0050 H         1 <0>         0.0000
     30 H7         -0.1025   -0.1612   -3.0872 H         1 <0>         0.0000
     31 H8          1.4681    0.4605   -2.5295 H         1 <0>         0.0000
     32 H9         -0.9319   -2.0971   -2.4373 H         1 <0>         0.0000
     33 H10         0.3674   -3.2517   -2.0409 H         1 <0>         0.0000
     34 H11         0.7068   -2.7601    0.9134 H         1 <0>         0.0000
     35 H12        -0.5233   -1.4893    1.1972 H         1 <0>         0.0000
     36 H13        -0.9429    2.3033   -0.0103 H         1 <0>         0.0000
     37 H14         0.6314    2.9726    0.5008 H         1 <0>         0.0000
     38 H15         0.1471    2.3134   -3.4617 H         1 <0>         0.0000
     39 H16        -1.2365    1.9046   -2.4099 H         1 <0>         0.0000
     40 H17         1.6100   -1.4842   -0.9281 H         1 <0>         0.0000
     41 H18        -1.4868   -4.3562    0.9251 H         1 <0>         0.0000
     42 H19        -0.2130   -4.8195   -0.2066 H         1 <0>         0.0000
     43 H20        -4.1401   -8.1570   -0.0039 H         1 <0>         0.0000
@<TRIPOS>BOND
     1    1    2 ar
     2    1    6 ar
     3    1   24 1
     4    2    8 ar
     5    2   25 1
     6    3    5 ar
     7    3    8 ar
     8    3   26 1
     9    4    7 ar
    10    4    9 ar
    11    4   27 1
    12    5    6 ar
    13    5    7 ar
    14    6   18 ar
    15    7   22 1
    16    8   23 1
    17    9   17 1
    18    9   18 ar
    19   10   14 1
    20   10   19 1
    21   10   28 1
    22   10   29 1
    23   11   15 1
    24   11   19 1
    25   11   30 1
    26   11   31 1
    27   12   16 1
    28   12   20 1
    29   12   32 1
    30   12   33 1
    31   13   16 1
    32   13   20 1
    33   13   34 1
    34   13   35 1
    35   14   21 1
    36   14   36 1
    37   14   37 1
    38   15   21 1
    39   15   38 1
    40   15   39 1
    41   16   19 1
    42   16   40 1
    43   17   20 1
    44   17   41 1
    45   17   42 1
    46   22   43 1
