@<TRIPOS>MOLECULE
*****
   21    21     0     0     0
SMALL
NO_CHARGES

@<TRIPOS>ATOM
      1 C1          0.3172    0.2267   -1.2814 C.ar      1 <0>         0.0000
      2 C2         -0.2983    0.4189   -0.0437 C.ar      1 <0>         0.0000
      3 C3          1.5399   -0.4496   -1.3768 C.ar      1 <0>         0.0000
      4 C4          1.5249   -0.7411    1.0460 C.ar      1 <0>         0.0000
      5 C5          0.3031   -0.0616    1.1311 C.ar      1 <0>         0.0000
      6 C6          2.1155   -0.9192   -0.2030 C.ar      1 <0>         0.0000
      7 C7         -1.6637   -0.6821    2.5359 C.2       1 <0>         0.0000
      8 C8         -0.3879    0.1295    2.4686 C.3       1 <0>         0.0000
      9 N1         -2.8632   -0.2260    2.4266 N.2       1 <0>         0.0000
     10 N2         -1.5008   -2.0493    2.7739 N.pl3     1 <0>         0.0000
     11 O1         -2.8730    1.1951    2.2723 O.3       1 <0>         0.0000
     12 F1          3.3024   -1.5789   -0.2699 F         1 <0>         0.0000
     13 H1         -0.1539    0.6049   -2.1847 H         1 <0>         0.0000
     14 H2         -1.2498    0.9393    0.0239 H         1 <0>         0.0000
     15 H3          2.0379   -0.6101   -2.3279 H         1 <0>         0.0000
     16 H4          2.0262   -1.1220    1.9319 H         1 <0>         0.0000
     17 H5          0.2663   -0.1920    3.2839 H         1 <0>         0.0000
     18 H6         -0.6349    1.1808    2.6205 H         1 <0>         0.0000
     19 H7         -0.7228   -2.4506    2.2578 H         1 <0>         0.0000
     20 H8         -2.3577   -2.5729    2.6172 H         1 <0>         0.0000
     21 H9         -3.8240    1.3856    2.2879 H         1 <0>         0.0000
@<TRIPOS>BOND
     1    1    2 ar
     2    1    3 ar
     3    1   13 1
     4    2    5 ar
     5    2   14 1
     6    3    6 ar
     7    3   15 1
     8    4    5 ar
     9    4    6 ar
    10    4   16 1
    11    5    8 1
    12    6   12 1
    13    7    8 1
    14    7    9 2
    15    7   10 1
    16    8   17 1
    17    8   18 1
    18    9   11 1
    19   10   19 1
    20   10   20 1
    21   11   21 1
