@<TRIPOS>MOLECULE
*****
   39    41     0     0     0
SMALL
NO_CHARGES

@<TRIPOS>ATOM
      1 C1         -5.2006    0.1013    2.2198 C.ar      1 <0>         0.0000
      2 C2         -4.2357    0.1570    1.2026 C.ar      1 <0>         0.0000
      3 C3         -5.4411   -1.0874    2.9172 C.ar      1 <0>         0.0000
      4 C4         -3.4872   -0.9759    0.8579 C.ar      1 <0>         0.0000
      5 C5         -6.4550   -8.2259    0.6417 C.2       1 <0>         0.0000
      6 C6         -4.7029   -2.2183    2.5736 C.ar      1 <0>         0.0000
      7 C7         -5.4244   -7.7396    1.5137 C.2       1 <0>         0.0000
      8 C8         -3.7537   -2.1446    1.5577 C.ar      1 <0>         0.0000
      9 C9         -6.3474   -9.5912    0.5725 C.2       1 <0>         0.0000
     10 C10        -4.7060   -8.8548    1.9685 C.2       1 <0>         0.0000
     11 C11        -4.8242   -3.5700    3.1907 C.2       1 <0>         0.0000
     12 C12        -5.2280   -6.3136    1.7651 C.2       1 <0>         0.0000
     13 C13        -7.1668  -10.5797   -0.1958 C.3       1 <0>         0.0000
     14 C14        -3.5305   -8.9885    2.8911 C.3       1 <0>         0.0000
     15 C15        -4.8286  -11.3360    1.5976 C.3       1 <0>         0.0000
     16 C16        -4.0465   -5.8641    2.6552 C.3       1 <0>         0.0000
     17 N1         -5.2719   -9.9658    1.3846 N.pl3     1 <0>         0.0000
     18 N2         -3.8756   -4.4241    2.6209 N.am      1 <0>         0.0000
     19 O1         -5.5921   -3.8985    4.0782 O.2       1 <0>         0.0000
     20 O2         -5.9732   -5.4592    1.2979 O.2       1 <0>         0.0000
     21 O3         -3.2547   -4.3713    0.0803 O.2       1 <0>         0.0000
     22 O4         -1.5434   -3.6434    1.7749 O.2       1 <0>         0.0000
     23 S1         -2.9415   -3.7214    1.3507 S.o2      1 <0>         0.0000
     24 H1         -5.7671    0.9947    2.4666 H         1 <0>         0.0000
     25 H2         -4.0654    1.0901    0.6730 H         1 <0>         0.0000
     26 H3         -6.1834   -1.1509    3.7072 H         1 <0>         0.0000
     27 H4         -2.7368   -0.9412    0.0740 H         1 <0>         0.0000
     28 H5         -7.1756   -7.6055    0.1272 H         1 <0>         0.0000
     29 H6         -6.5733  -11.1320   -0.9350 H         1 <0>         0.0000
     30 H7         -7.6583  -11.3135    0.4545 H         1 <0>         0.0000
     31 H8         -7.9492  -10.0444   -0.7383 H         1 <0>         0.0000
     32 H9         -3.4948   -9.9787    3.3516 H         1 <0>         0.0000
     33 H10        -2.5780   -8.8374    2.3668 H         1 <0>         0.0000
     34 H11        -3.5773   -8.2648    3.7053 H         1 <0>         0.0000
     35 H12        -3.7535  -11.4284    1.4221 H         1 <0>         0.0000
     36 H13        -5.0538  -11.6751    2.6146 H         1 <0>         0.0000
     37 H14        -5.3427  -11.9928    0.8974 H         1 <0>         0.0000
     38 H15        -3.1116   -6.3389    2.3523 H         1 <0>         0.0000
     39 H16        -4.2468   -6.1431    3.6935 H         1 <0>         0.0000
@<TRIPOS>BOND
     1    1    2 ar
     2    1    3 ar
     3    1   24 1
     4    2    4 ar
     5    2   25 1
     6    3    6 ar
     7    3   26 1
     8    4    8 ar
     9    4   27 1
    10    5    7 1
    11    5    9 2
    12    5   28 1
    13    6    8 ar
    14    6   11 1
    15    7   10 2
    16    7   12 1
    17    8   23 1
    18    9   13 1
    19    9   17 1
    20   10   14 1
    21   10   17 1
    22   11   18 am
    23   11   19 2
    24   12   16 1
    25   12   20 2
    26   13   29 1
    27   13   30 1
    28   13   31 1
    29   14   32 1
    30   14   33 1
    31   14   34 1
    32   15   17 1
    33   15   35 1
    34   15   36 1
    35   15   37 1
    36   16   18 1
    37   16   38 1
    38   16   39 1
    39   18   23 1
    40   21   23 2
    41   22   23 2
