@<TRIPOS>MOLECULE
*****
   34    37     0     0     0
SMALL
NO_CHARGES

@<TRIPOS>ATOM
      1 C1          5.5166   -5.5297    1.5505 C.ar      1 <0>         0.0000
      2 C2          5.7566   -4.3291    2.2326 C.ar      1 <0>         0.0000
      3 C3          4.3332   -5.7212    0.8264 C.ar      1 <0>         0.0000
      4 C4          4.8153   -3.2905    2.2053 C.ar      1 <0>         0.0000
      5 C5         -2.0482   -5.6629   -2.5823 C.ar      1 <0>         0.0000
      6 C6         -2.7641   -8.0217   -4.0271 C.ar      1 <0>         0.0000
      7 C7          3.3940   -4.6874    0.7980 C.ar      1 <0>         0.0000
      8 C8         -1.1668   -6.7806   -2.6118 C.ar      1 <0>         0.0000
      9 C9         -3.2366   -5.7634   -3.2607 C.ar      1 <0>         0.0000
     10 C10        -3.5908   -6.9181   -3.9693 C.ar      1 <0>         0.0000
     11 C11         3.6525   -3.5026    1.4828 C.ar      1 <0>         0.0000
     12 C12        -1.5445   -7.9284   -3.3319 C.ar      1 <0>         0.0000
     13 C13         2.0634   -4.5975    0.1248 C.2       1 <0>         0.0000
     14 C14         0.1040   -6.7053   -1.8953 C.2       1 <0>         0.0000
     15 C15        -5.3055   -5.4789   -4.0795 C.3       1 <0>         0.0000
     16 N1          1.3755   -3.5026    0.2599 N.2       1 <0>         0.0000
     17 N2          0.4228   -5.6454   -1.2373 N.2       1 <0>         0.0000
     18 N3          1.6272   -5.6643   -0.6009 N.pl3     1 <0>         0.0000
     19 O1          1.5297   -2.2006    2.4920 O.2       1 <0>         0.0000
     20 O2          2.6388   -1.2492    0.4270 O.2       1 <0>         0.0000
     21 O3         -4.2271   -4.8191   -3.4013 O.3       1 <0>         0.0000
     22 O4         -4.8083   -6.7431   -4.5685 O.3       1 <0>         0.0000
     23 S1          2.2379   -2.4044    1.2289 S.o2      1 <0>         0.0000
     24 Cl1        -0.4955   -9.3432   -3.4030 Cl        1 <0>         0.0000
     25 H1          6.2580   -6.3228    1.5835 H         1 <0>         0.0000
     26 H2          6.6816   -4.2023    2.7881 H         1 <0>         0.0000
     27 H3          4.1728   -6.6626    0.3065 H         1 <0>         0.0000
     28 H4          4.9893   -2.3556    2.7295 H         1 <0>         0.0000
     29 H5         -1.7627   -4.7715   -2.0348 H         1 <0>         0.0000
     30 H6         -3.0349   -8.9149   -4.5780 H         1 <0>         0.0000
     31 H7          0.7649   -7.5772   -1.9411 H         1 <0>         0.0000
     32 H8         -6.1242   -5.6665   -3.3741 H         1 <0>         0.0000
     33 H9         -5.6301   -4.8706   -4.9264 H         1 <0>         0.0000
     34 H10         2.2194   -6.4903   -0.6633 H         1 <0>         0.0000
@<TRIPOS>BOND
     1    1    2 ar
     2    1    3 ar
     3    1   25 1
     4    2    4 ar
     5    2   26 1
     6    3    7 ar
     7    3   27 1
     8    4   11 ar
     9    4   28 1
    10    5    8 ar
    11    5    9 ar
    12    5   29 1
    13    6   10 ar
    14    6   12 ar
    15    6   30 1
    16    7   11 ar
    17    7   13 1
    18    8   12 ar
    19    8   14 1
    20    9   10 ar
    21    9   21 1
    22   10   22 1
    23   11   23 1
    24   12   24 1
    25   13   16 2
    26   13   18 1
    27   14   17 2
    28   14   31 1
    29   15   21 1
    30   15   22 1
    31   15   32 1
    32   15   33 1
    33   16   23 1
    34   17   18 1
    35   18   34 1
    36   19   23 2
    37   20   23 2
