@<TRIPOS>MOLECULE
*****
   39    42     0     0     0
SMALL
NO_CHARGES

@<TRIPOS>ATOM
      1 C1          2.0132   -3.2000    5.7128 C.ar      1 <0>         0.0000
      2 C2          3.9639    5.1525   -2.4789 C.ar      1 <0>         0.0000
      3 C3          1.0493   -2.2409    5.9501 C.ar      1 <0>         0.0000
      4 C4          2.9632    4.2875   -2.0345 C.ar      1 <0>         0.0000
      5 C5          2.8360   -3.1265    4.5626 C.ar      1 <0>         0.0000
      6 C6         -0.1954    0.8624    4.2711 C.ar      1 <0>         0.0000
      7 C7          5.2931    4.8559   -2.1622 C.ar      1 <0>         0.0000
      8 C8          4.6799    2.9616   -1.0305 C.ar      1 <0>         0.0000
      9 C9          0.8802   -1.1713    5.0350 C.ar      1 <0>         0.0000
     10 C10         3.3138    3.1552   -1.2882 C.ar      1 <0>         0.0000
     11 C11         1.6938   -1.0708    3.8647 C.ar      1 <0>         0.0000
     12 C12        -0.0924   -0.1425    5.2097 C.ar      1 <0>         0.0000
     13 C13         2.6690   -2.0887    3.6766 C.ar      1 <0>         0.0000
     14 C14         0.6715    0.8542    3.1438 C.ar      1 <0>         0.0000
     15 C15         0.9554    2.7127   -0.2015 C.3       1 <0>         0.0000
     16 C16         2.4716    1.4570    0.5559 C.3       1 <0>         0.0000
     17 C17         2.2812    2.1775   -0.8044 C.3       1 <0>         0.0000
     18 C18         0.5823    1.9918    2.1456 C.3       1 <0>         0.0000
     19 N1          5.6550    3.7801   -1.4498 N.ar      1 <0>         0.0000
     20 N2          1.5874   -0.0731    2.9445 N.ar      1 <0>         0.0000
     21 N3          1.0187    1.6361    0.8121 N.3       1 <0>         0.0000
     22 O1         -0.8818   -0.2234    6.3191 O.3       1 <0>         0.0000
     23 F1          3.4565   -2.0233    2.5818 F         1 <0>         0.0000
     24 H1          2.1497   -4.0225    6.4091 H         1 <0>         0.0000
     25 H2          3.7243    6.0404   -3.0578 H         1 <0>         0.0000
     26 H3          0.4156   -2.2909    6.8289 H         1 <0>         0.0000
     27 H4          1.9188    4.4907   -2.2623 H         1 <0>         0.0000
     28 H5          3.5978   -3.8746    4.3653 H         1 <0>         0.0000
     29 H6         -0.9351    1.6539    4.3794 H         1 <0>         0.0000
     30 H7          6.0998    5.5091   -2.4920 H         1 <0>         0.0000
     31 H8          5.0035    2.0976   -0.4509 H         1 <0>         0.0000
     32 H9          1.0928    3.7200    0.2275 H         1 <0>         0.0000
     33 H10         0.0541    2.7043   -0.8250 H         1 <0>         0.0000
     34 H11         2.8082    0.4201    0.5658 H         1 <0>         0.0000
     35 H12         3.0960    2.0460    1.2464 H         1 <0>         0.0000
     36 H13         2.0642    1.4435   -1.5876 H         1 <0>         0.0000
     37 H14        -0.4585    2.3314    2.0829 H         1 <0>         0.0000
     38 H15         1.1640    2.8446    2.5567 H         1 <0>         0.0000
     39 H16        -1.4998    0.5258    6.3274 H         1 <0>         0.0000
@<TRIPOS>BOND
     1    1    3 ar
     2    1    5 ar
     3    1   24 1
     4    2    4 ar
     5    2    7 ar
     6    2   25 1
     7    3    9 ar
     8    3   26 1
     9    4   10 ar
    10    4   27 1
    11    5   13 ar
    12    5   28 1
    13    6   12 ar
    14    6   14 ar
    15    6   29 1
    16    7   19 ar
    17    7   30 1
    18    8   10 ar
    19    8   19 ar
    20    8   31 1
    21    9   11 ar
    22    9   12 ar
    23   10   17 1
    24   11   13 ar
    25   11   20 ar
    26   12   22 1
    27   13   23 1
    28   14   18 1
    29   14   20 ar
    30   15   17 1
    31   15   21 1
    32   15   32 1
    33   15   33 1
    34   16   17 1
    35   16   21 1
    36   16   34 1
    37   16   35 1
    38   17   36 1
    39   18   21 1
    40   18   37 1
    41   18   38 1
    42   22   39 1
