@<TRIPOS>MOLECULE
*****
   43    45     0     0     0
SMALL
NO_CHARGES

@<TRIPOS>ATOM
      1 C1         -1.0215   -7.5226    2.2505 C.ar      1 <0>         0.0000
      2 C2         -2.2387   -7.0836    2.8135 C.ar      1 <0>         0.0000
      3 C3          0.0039   -6.6156    1.9881 C.ar      1 <0>         0.0000
      4 C4         -2.4569   -5.7444    3.1402 C.ar      1 <0>         0.0000
      5 C5         -0.2110   -5.2697    2.3006 C.ar      1 <0>         0.0000
      6 C6         -1.4192   -4.8442    2.8753 C.ar      1 <0>         0.0000
      7 C7          0.6308   -4.0796    2.0940 C.2       1 <0>         0.0000
      8 C8         -0.7069   -1.0287    1.4269 C.2       1 <0>         0.0000
      9 C9         -0.3157    1.2748   -1.1740 C.3       1 <0>         0.0000
     10 C10        -0.9807   -0.0532   -0.7961 C.3       1 <0>         0.0000
     11 C11         1.1958   -1.0197   -0.2355 C.3       1 <0>         0.0000
     12 C12         1.9436    0.2906   -0.5348 C.3       1 <0>         0.0000
     13 C13         1.1514    1.1019   -1.5984 C.3       1 <0>         0.0000
     14 C14         2.2437    1.0629    0.7577 C.3       1 <0>         0.0000
     15 C15         1.7918    2.4592   -1.9023 C.3       1 <0>         0.0000
     16 C16         0.1749   -1.6410    2.5244 C.3       1 <0>         0.0000
     17 N1         -1.3663   -3.4690    3.1547 N.pl3     1 <0>         0.0000
     18 N2         -0.1218   -3.0476    2.6266 N.am      1 <0>         0.0000
     19 N3         -0.1694   -0.7366    0.2180 N.am      1 <0>         0.0000
     20 O1          1.7501   -3.9441    1.5878 O.2       1 <0>         0.0000
     21 O2         -1.9105   -0.8718    1.6948 O.2       1 <0>         0.0000
     22 O3          1.0898    0.3265   -2.8183 O.3       1 <0>         0.0000
     23 H1         -0.8895   -8.5760    2.0203 H         1 <0>         0.0000
     24 H2         -3.0263   -7.8080    3.0041 H         1 <0>         0.0000
     25 H3          0.9462   -6.9284    1.5472 H         1 <0>         0.0000
     26 H4         -3.3926   -5.4174    3.5851 H         1 <0>         0.0000
     27 H5         -0.8648    1.7338   -2.0026 H         1 <0>         0.0000
     28 H6         -0.3686    1.9610   -0.3227 H         1 <0>         0.0000
     29 H7         -1.9770    0.1039   -0.3857 H         1 <0>         0.0000
     30 H8         -1.0599   -0.6989   -1.6770 H         1 <0>         0.0000
     31 H9          1.1166   -1.6104   -1.1536 H         1 <0>         0.0000
     32 H10         1.7287   -1.6367    0.4850 H         1 <0>         0.0000
     33 H11         2.9048    0.0148   -0.9926 H         1 <0>         0.0000
     34 H12         1.3266    1.3845    1.2610 H         1 <0>         0.0000
     35 H13         2.8534    1.9504    0.5710 H         1 <0>         0.0000
     36 H14         2.7994    0.4269    1.4553 H         1 <0>         0.0000
     37 H15         2.8507    2.3430   -2.1667 H         1 <0>         0.0000
     38 H16         1.7330    3.1419   -1.0505 H         1 <0>         0.0000
     39 H17         1.2765    2.9223   -2.7489 H         1 <0>         0.0000
     40 H18        -0.0937   -1.1443    3.4606 H         1 <0>         0.0000
     41 H19         1.2479   -1.5549    2.3695 H         1 <0>         0.0000
     42 H20        -2.1220   -2.8899    2.7778 H         1 <0>         0.0000
     43 H21         1.9957    0.2197   -3.1509 H         1 <0>         0.0000
@<TRIPOS>BOND
     1    1    2 ar
     2    1    3 ar
     3    1   23 1
     4    2    4 ar
     5    2   24 1
     6    3    5 ar
     7    3   25 1
     8    4    6 ar
     9    4   26 1
    10    5    6 ar
    11    5    7 1
    12    6   17 1
    13    7   18 am
    14    7   20 2
    15    8   16 1
    16    8   19 am
    17    8   21 2
    18    9   10 1
    19    9   13 1
    20    9   27 1
    21    9   28 1
    22   10   19 1
    23   10   29 1
    24   10   30 1
    25   11   12 1
    26   11   19 1
    27   11   31 1
    28   11   32 1
    29   12   13 1
    30   12   14 1
    31   12   33 1
    32   13   15 1
    33   13   22 1
    34   14   34 1
    35   14   35 1
    36   14   36 1
    37   15   37 1
    38   15   38 1
    39   15   39 1
    40   16   18 1
    41   16   40 1
    42   16   41 1
    43   17   18 1
    44   17   42 1
    45   22   43 1
