@<TRIPOS>MOLECULE
*****
   43    45     0     0     0
SMALL
NO_CHARGES

@<TRIPOS>ATOM
      1 C1         -0.8714    3.5341   -8.9411 C.ar      1 <0>         0.0000
      2 C2         -2.0553    3.7247   -8.1977 C.ar      1 <0>         0.0000
      3 C3          0.1899    2.8064   -8.4046 C.ar      1 <0>         0.0000
      4 C4         -2.2158    3.1870   -6.9194 C.ar      1 <0>         0.0000
      5 C5          0.0419    2.2786   -7.1186 C.ar      1 <0>         0.0000
      6 C6         -1.1476    2.4499   -6.3969 C.ar      1 <0>         0.0000
      7 C7          0.9655    1.4990   -6.2782 C.2       1 <0>         0.0000
      8 C8          0.4053    0.8801   -2.6753 C.2       1 <0>         0.0000
      9 C9          0.5996   -2.2453   -1.1318 C.3       1 <0>         0.0000
     10 C10         1.5051   -1.1914   -1.7805 C.3       1 <0>         0.0000
     11 C11         0.6258    0.5282   -0.2665 C.3       1 <0>         0.0000
     12 C12        -0.2931   -0.4863    0.4359 C.3       1 <0>         0.0000
     13 C13         0.2697   -1.9291    0.3410 C.3       1 <0>         0.0000
     14 C14        -0.5951   -0.0369    1.8686 C.3       1 <0>         0.0000
     15 C15         1.4851   -2.1616    1.2420 C.3       1 <0>         0.0000
     16 C16         0.6279    0.3472   -4.0978 C.3       1 <0>         0.0000
     17 N1         -1.0765    1.7667   -5.1711 N.pl3     1 <0>         0.0000
     18 N2          0.2727    1.3310   -5.0822 N.am      1 <0>         0.0000
     19 N3          0.9058    0.1365   -1.6489 N.am      1 <0>         0.0000
     20 O1          2.0879    1.0472   -6.5094 O.2       1 <0>         0.0000
     21 O2         -0.2195    1.9325   -2.4948 O.2       1 <0>         0.0000
     22 O3         -0.7099   -2.8722    0.8164 O.3       1 <0>         0.0000
     23 H1         -0.7912    3.9625   -9.9361 H         1 <0>         0.0000
     24 H2         -2.8679    4.3002   -8.6336 H         1 <0>         0.0000
     25 H3          1.1149    2.6529   -8.9532 H         1 <0>         0.0000
     26 H4         -3.1362    3.3291   -6.3597 H         1 <0>         0.0000
     27 H5         -0.3385   -2.2903   -1.7019 H         1 <0>         0.0000
     28 H6          1.0657   -3.2341   -1.1948 H         1 <0>         0.0000
     29 H7          2.4885   -1.1795   -1.2950 H         1 <0>         0.0000
     30 H8          1.6759   -1.4337   -2.8277 H         1 <0>         0.0000
     31 H9          0.1627    1.5138   -0.2865 H         1 <0>         0.0000
     32 H10         1.5785    0.6145    0.2715 H         1 <0>         0.0000
     33 H11        -1.2383   -0.4895   -0.1279 H         1 <0>         0.0000
     34 H12         0.3238    0.1479    2.4348 H         1 <0>         0.0000
     35 H13        -1.1735   -0.7973    2.4000 H         1 <0>         0.0000
     36 H14        -1.1720    0.8937    1.8640 H         1 <0>         0.0000
     37 H15         1.2011   -2.0671    2.2920 H         1 <0>         0.0000
     38 H16         2.2914   -1.4527    1.0384 H         1 <0>         0.0000
     39 H17         1.8689   -3.1741    1.0883 H         1 <0>         0.0000
     40 H18         0.0411   -0.5730   -4.2363 H         1 <0>         0.0000
     41 H19         1.6776    0.1128   -4.2895 H         1 <0>         0.0000
     42 H20        -1.2871    2.3169   -4.3353 H         1 <0>         0.0000
     43 H21        -1.5027   -2.7874    0.2617 H         1 <0>         0.0000
@<TRIPOS>BOND
     1    1    2 ar
     2    1    3 ar
     3    1   23 1
     4    2    4 ar
     5    2   24 1
     6    3    5 ar
     7    3   25 1
     8    4    6 ar
     9    4   26 1
    10    5    6 ar
    11    5    7 1
    12    6   17 1
    13    7   18 am
    14    7   20 2
    15    8   16 1
    16    8   19 am
    17    8   21 2
    18    9   10 1
    19    9   13 1
    20    9   27 1
    21    9   28 1
    22   10   19 1
    23   10   29 1
    24   10   30 1
    25   11   12 1
    26   11   19 1
    27   11   31 1
    28   11   32 1
    29   12   13 1
    30   12   14 1
    31   12   33 1
    32   13   15 1
    33   13   22 1
    34   14   34 1
    35   14   35 1
    36   14   36 1
    37   15   37 1
    38   15   38 1
    39   15   39 1
    40   16   18 1
    41   16   40 1
    42   16   41 1
    43   17   18 1
    44   17   42 1
    45   22   43 1
