@<TRIPOS>MOLECULE
*****
   32    34     0     0     0
SMALL
NO_CHARGES

@<TRIPOS>ATOM
      1 C1          7.7882   -3.9473    2.1035 C.1       1 <0>         0.0000
      2 C2          8.6764    4.1975    2.4545 C.ar      1 <0>         0.0000
      3 C3          8.3884    4.6571    3.7428 C.ar      1 <0>         0.0000
      4 C4          5.0537   -6.5872    4.5616 C.2       1 <0>         0.0000
      5 C5          8.6444    2.8297    2.1949 C.ar      1 <0>         0.0000
      6 C6          8.0790    3.7433    4.7524 C.ar      1 <0>         0.0000
      7 C7          5.8734   -5.6655    3.8665 C.2       1 <0>         0.0000
      8 C8          4.3467   -6.0052    5.5938 C.2       1 <0>         0.0000
      9 C9          8.3264    1.9071    3.2088 C.ar      1 <0>         0.0000
     10 C10         8.0403    2.3608    4.5175 C.ar      1 <0>         0.0000
     11 C11         5.7887   -4.3717    4.3750 C.2       1 <0>         0.0000
     12 C12         8.3180    0.4784    2.8467 C.2       1 <0>         0.0000
     13 C13         7.8434   -1.5715    2.7852 C.2       1 <0>         0.0000
     14 C14         6.4263   -3.1479    3.9921 C.2       1 <0>         0.0000
     15 C15         7.3253   -2.9197    2.9838 C.2       1 <0>         0.0000
     16 C16         7.7167    1.4332    5.6668 C.3       1 <0>         0.0000
     17 N1          8.1461   -4.8067    1.4018 N.1       1 <0>         0.0000
     18 N2          7.5537   -0.4930    3.4671 N.2       1 <0>         0.0000
     19 N3          9.0459    0.0203    1.8417 N.2       1 <0>         0.0000
     20 O1          8.7256   -1.3501    1.7935 O.3       1 <0>         0.0000
     21 S1          4.6723   -4.3234    5.7307 S.3       1 <0>         0.0000
     22 H1          8.9188    4.8970    1.6593 H         1 <0>         0.0000
     23 H2          8.4059    5.7215    3.9627 H         1 <0>         0.0000
     24 H3          4.9837   -7.6411    4.3146 H         1 <0>         0.0000
     25 H4          8.8588    2.4571    1.1983 H         1 <0>         0.0000
     26 H5          7.8662    4.1086    5.7542 H         1 <0>         0.0000
     27 H6          6.5016   -5.9350    3.0272 H         1 <0>         0.0000
     28 H7          3.6542   -6.4822    6.2761 H         1 <0>         0.0000
     29 H8          6.1724   -2.2640    4.5738 H         1 <0>         0.0000
     30 H9          6.7353    0.9688    5.5385 H         1 <0>         0.0000
     31 H10         8.4395    0.6166    5.7461 H         1 <0>         0.0000
     32 H11         7.7184    1.9873    6.6092 H         1 <0>         0.0000
@<TRIPOS>BOND
     1    1   15 1
     2    1   17 3
     3    2    3 ar
     4    2    5 ar
     5    2   22 1
     6    3    6 ar
     7    3   23 1
     8    4    7 1
     9    4    8 2
    10    4   24 1
    11    5    9 ar
    12    5   25 1
    13    6   10 ar
    14    6   26 1
    15    7   11 2
    16    7   27 1
    17    8   21 1
    18    8   28 1
    19    9   10 ar
    20    9   12 1
    21   10   16 1
    22   11   14 1
    23   11   21 1
    24   12   18 1
    25   12   19 2
    26   13   15 1
    27   13   18 2
    28   13   20 1
    29   14   15 2
    30   14   29 1
    31   16   30 1
    32   16   31 1
    33   16   32 1
    34   19   20 1
