@<TRIPOS>MOLECULE
*****
   70    74     0     0     0
SMALL
NO_CHARGES

@<TRIPOS>ATOM
      1 C1          2.7698   -6.2621   -5.2454 C.ar      1 <0>         0.0000
      2 C2          4.3327   -5.8131   -7.0307 C.ar      1 <0>         0.0000
      3 C3          4.0599  -11.1197    1.7150 C.ar      1 <0>         0.0000
      4 C4          3.4124  -10.2826    0.8223 C.ar      1 <0>         0.0000
      5 C5          3.2528   -5.1629   -4.5316 C.ar      1 <0>         0.0000
      6 C6          4.8262   -4.7243   -6.3325 C.ar      1 <0>         0.0000
      7 C7          4.0827  -12.9129    0.0972 C.ar      1 <0>         0.0000
      8 C8          3.4287  -12.0735   -0.8196 C.ar      1 <0>         0.0000
      9 C9          3.2977   -6.6114   -6.4985 C.ar      1 <0>         0.0000
     10 C10         4.4078  -12.4497    1.3683 C.ar      1 <0>         0.0000
     11 C11         3.0893  -10.7561   -0.4663 C.ar      1 <0>         0.0000
     12 C12         4.2907   -4.3876   -5.0729 C.ar      1 <0>         0.0000
     13 C13         3.0725  -12.5369   -2.1571 C.2       1 <0>         0.0000
     14 C14         2.8290   -7.7858   -7.2939 C.2       1 <0>         0.0000
     15 C15         4.0374  -10.0567   -5.7907 C.2       1 <0>         0.0000
     16 C16         5.2158    1.1287   -1.7325 C.3       1 <0>         0.0000
     17 C17         5.4546   -0.0600   -0.7911 C.3       1 <0>         0.0000
     18 C18         5.5945    0.7776   -3.1779 C.3       1 <0>         0.0000
     19 C19         1.4531   -9.9601   -7.5198 C.3       1 <0>         0.0000
     20 C20         4.7226   -1.3194   -1.2768 C.3       1 <0>         0.0000
     21 C21         4.8611   -0.4809   -3.6615 C.3       1 <0>         0.0000
     22 C22         1.1852  -11.1708   -6.5872 C.3       1 <0>         0.0000
     23 C23         1.9555   -8.8298   -6.6038 C.3       1 <0>         0.0000
     24 C24         2.6375   -9.5793   -5.4132 C.3       1 <0>         0.0000
     25 C25         5.1049   -1.6746   -2.7239 C.3       1 <0>         0.0000
     26 C26         1.6267  -10.7210   -5.1719 C.3       1 <0>         0.0000
     27 C27         5.1124  -13.3296    2.3719 C.3       1 <0>         0.0000
     28 C28         2.0779  -11.8982   -4.3179 C.3       1 <0>         0.0000
     29 C29         4.3472   -2.9158   -3.1739 C.3       1 <0>         0.0000
     30 N1          2.4374   -9.8908   -1.3411 N.2       1 <0>         0.0000
     31 N2          2.1432  -10.2818   -2.5172 N.2       1 <0>         0.0000
     32 N3          2.4651  -11.5365   -2.9367 N.am      1 <0>         0.0000
     33 O1          3.2558  -13.6649   -2.6054 O.2       1 <0>         0.0000
     34 O2          3.1698   -7.9237   -8.4633 O.2       1 <0>         0.0000
     35 O3          4.2937  -11.1394   -6.2698 O.2       1 <0>         0.0000
     36 O4          5.0432   -9.1664   -5.5609 O.3       1 <0>         0.0000
     37 O5          4.8407   -3.3069   -4.4654 O.3       1 <0>         0.0000
     38 H1          1.9582   -6.8341   -4.8075 H         1 <0>         0.0000
     39 H2          4.7421   -6.0823   -7.9992 H         1 <0>         0.0000
     40 H3          4.3094  -10.7520    2.7080 H         1 <0>         0.0000
     41 H4          3.1432   -9.2642    1.0863 H         1 <0>         0.0000
     42 H5          2.8169   -4.9232   -3.5692 H         1 <0>         0.0000
     43 H6          5.6304   -4.1137   -6.7323 H         1 <0>         0.0000
     44 H7          4.3266  -13.9241   -0.2150 H         1 <0>         0.0000
     45 H8          5.7845    2.0014   -1.3908 H         1 <0>         0.0000
     46 H9          4.1543    1.4110   -1.6955 H         1 <0>         0.0000
     47 H10         6.5318   -0.2689   -0.7379 H         1 <0>         0.0000
     48 H11         5.1330    0.1886    0.2268 H         1 <0>         0.0000
     49 H12         5.3722    1.6186   -3.8447 H         1 <0>         0.0000
     50 H13         6.6786    0.6091   -3.2377 H         1 <0>         0.0000
     51 H14         2.2238  -10.1954   -8.2552 H         1 <0>         0.0000
     52 H15         0.5655   -9.6466   -8.0750 H         1 <0>         0.0000
     53 H16         4.9427   -2.1628   -0.6103 H         1 <0>         0.0000
     54 H17         3.6376   -1.1489   -1.2219 H         1 <0>         0.0000
     55 H18         3.7806   -0.2782   -3.7008 H         1 <0>         0.0000
     56 H19         5.1709   -0.7389   -4.6790 H         1 <0>         0.0000
     57 H20         0.1332  -11.4710   -6.5845 H         1 <0>         0.0000
     58 H21         1.7736  -12.0320   -6.9115 H         1 <0>         0.0000
     59 H22         1.0958   -8.3067   -6.1665 H         1 <0>         0.0000
     60 H23         2.7108   -8.9441   -4.5298 H         1 <0>         0.0000
     61 H24         6.1762   -1.9191   -2.7462 H         1 <0>         0.0000
     62 H25         0.7744  -10.2448   -4.6766 H         1 <0>         0.0000
     63 H26         4.4964  -13.4735    3.2668 H         1 <0>         0.0000
     64 H27         5.3360  -14.3138    1.9537 H         1 <0>         0.0000
     65 H28         6.0555  -12.8766    2.6968 H         1 <0>         0.0000
     66 H29         2.9327  -12.4026   -4.7674 H         1 <0>         0.0000
     67 H30         1.2702  -12.6353   -4.2522 H         1 <0>         0.0000
     68 H31         3.2713   -2.7045   -3.2419 H         1 <0>         0.0000
     69 H32         4.4960   -3.7407   -2.4646 H         1 <0>         0.0000
     70 H33         4.6807   -8.3200   -5.2419 H         1 <0>         0.0000
@<TRIPOS>BOND
     1    1    5 ar
     2    1    9 ar
     3    1   38 1
     4    2    6 ar
     5    2    9 ar
     6    2   39 1
     7    3    4 ar
     8    3   10 ar
     9    3   40 1
    10    4   11 ar
    11    4   41 1
    12    5   12 ar
    13    5   42 1
    14    6   12 ar
    15    6   43 1
    16    7    8 ar
    17    7   10 ar
    18    7   44 1
    19    8   11 ar
    20    8   13 1
    21    9   14 1
    22   10   27 1
    23   11   30 1
    24   12   37 1
    25   13   32 am
    26   13   33 2
    27   14   23 1
    28   14   34 2
    29   15   24 1
    30   15   35 2
    31   15   36 1
    32   16   18 1
    33   16   17 1
    34   16   45 1
    35   16   46 1
    36   17   20 1
    37   17   47 1
    38   17   48 1
    39   18   21 1
    40   18   49 1
    41   18   50 1
    42   19   22 1
    43   19   23 1
    44   19   51 1
    45   19   52 1
    46   20   25 1
    47   20   53 1
    48   20   54 1
    49   21   25 1
    50   21   55 1
    51   21   56 1
    52   22   26 1
    53   22   57 1
    54   22   58 1
    55   23   24 1
    56   23   59 1
    57   24   26 1
    58   24   60 1
    59   25   29 1
    60   25   61 1
    61   26   28 1
    62   26   62 1
    63   27   63 1
    64   27   64 1
    65   27   65 1
    66   28   32 1
    67   28   66 1
    68   28   67 1
    69   29   37 1
    70   29   68 1
    71   29   69 1
    72   30   31 2
    73   31   32 1
    74   36   70 1
