@<TRIPOS>MOLECULE
*****
   48    50     0     0     0
SMALL
NO_CHARGES

@<TRIPOS>ATOM
      1 C1        -11.2131    5.5756   -5.1359 C.ar      1 <0>         0.0000
      2 C2        -11.9107    4.3414   -5.0442 C.ar      1 <0>         0.0000
      3 C3         -3.6987   -0.6015   -0.1568 C.ar      1 <0>         0.0000
      4 C4         -9.9356    5.6908   -4.6297 C.ar      1 <0>         0.0000
      5 C5         -7.9944    4.6256   -3.4695 C.ar      1 <0>         0.0000
      6 C6        -11.3230    3.2442   -4.4500 C.ar      1 <0>         0.0000
      7 C7         -4.2590   -1.8720    0.0227 C.ar      1 <0>         0.0000
      8 C8         -4.4213    0.4189   -0.7665 C.ar      1 <0>         0.0000
      9 C9         -7.4548    3.5012   -2.8858 C.ar      1 <0>         0.0000
     10 C10        -6.3289   -1.0788   -0.9905 C.ar      1 <0>         0.0000
     11 C11        -9.3044    4.5773   -4.0115 C.ar      1 <0>         0.0000
     12 C12       -10.0072    3.3334   -3.9192 C.ar      1 <0>         0.0000
     13 C13        -5.5750   -2.1016   -0.3926 C.ar      1 <0>         0.0000
     14 C14        -5.7392    0.1742   -1.1885 C.ar      1 <0>         0.0000
     15 C15        -8.2366    2.3150   -2.8458 C.ar      1 <0>         0.0000
     16 C16        -5.5395   -5.7069   -6.3936 C.3       1 <0>         0.0000
     17 C17        -7.7243    1.0380   -2.2161 C.3       1 <0>         0.0000
     18 C18        -5.0377   -5.0258   -5.1157 C.3       1 <0>         0.0000
     19 C19        -6.1126   -4.9781   -4.0210 C.3       1 <0>         0.0000
     20 C20        -5.5918   -4.2917   -2.7581 C.3       1 <0>         0.0000
     21 N1         -9.4582    2.2274   -3.3388 N.ar      1 <0>         0.0000
     22 N2         -6.1678   -3.3801   -0.1809 N.pl3     1 <0>         0.0000
     23 O1         -7.0629   -5.5975   -0.9381 O.2       1 <0>         0.0000
     24 O2         -7.9919   -3.4561   -1.9811 O.2       1 <0>         0.0000
     25 O3         -6.3805    1.2290   -1.7737 O.3       1 <0>         0.0000
     26 S1         -6.8708   -4.2455   -1.4686 S.o2      1 <0>         0.0000
     27 H1        -11.6927    6.4292   -5.6075 H         1 <0>         0.0000
     28 H2        -12.9173    4.2656   -5.4472 H         1 <0>         0.0000
     29 H3         -2.6801   -0.4145    0.1721 H         1 <0>         0.0000
     30 H4         -9.3971    6.6336   -4.6971 H         1 <0>         0.0000
     31 H5         -7.4267    5.5525   -3.5191 H         1 <0>         0.0000
     32 H6        -11.8400    2.2925   -4.3700 H         1 <0>         0.0000
     33 H7         -3.6804   -2.6712    0.4795 H         1 <0>         0.0000
     34 H8         -3.9934    1.4045   -0.9212 H         1 <0>         0.0000
     35 H9         -6.4582    3.4994   -2.4609 H         1 <0>         0.0000
     36 H10        -7.3497   -1.2865   -1.2810 H         1 <0>         0.0000
     37 H11        -6.4032   -5.1768   -6.8101 H         1 <0>         0.0000
     38 H12        -4.7590   -5.7310   -7.1611 H         1 <0>         0.0000
     39 H13        -5.8471   -6.7397   -6.1957 H         1 <0>         0.0000
     40 H14        -8.3702    0.7689   -1.3713 H         1 <0>         0.0000
     41 H15        -7.7767    0.2266   -2.9518 H         1 <0>         0.0000
     42 H16        -4.1548   -5.5577   -4.7382 H         1 <0>         0.0000
     43 H17        -4.7086   -4.0048   -5.3479 H         1 <0>         0.0000
     44 H18        -6.4367   -5.9952   -3.7755 H         1 <0>         0.0000
     45 H19        -6.9923   -4.4385   -4.3863 H         1 <0>         0.0000
     46 H20        -4.7427   -4.8247   -2.3205 H         1 <0>         0.0000
     47 H21        -5.3085   -3.2521   -2.9444 H         1 <0>         0.0000
     48 H22        -5.6134   -4.0169    0.3870 H         1 <0>         0.0000
@<TRIPOS>BOND
     1    1    2 ar
     2    1    4 ar
     3    1   27 1
     4    2    6 ar
     5    2   28 1
     6    3    7 ar
     7    3    8 ar
     8    3   29 1
     9    4   11 ar
    10    4   30 1
    11    5    9 ar
    12    5   11 ar
    13    5   31 1
    14    6   12 ar
    15    6   32 1
    16    7   13 ar
    17    7   33 1
    18    8   14 ar
    19    8   34 1
    20    9   15 ar
    21    9   35 1
    22   10   13 ar
    23   10   14 ar
    24   10   36 1
    25   11   12 ar
    26   12   21 ar
    27   13   22 1
    28   14   25 1
    29   15   17 1
    30   15   21 ar
    31   16   18 1
    32   16   37 1
    33   16   38 1
    34   16   39 1
    35   17   25 1
    36   17   40 1
    37   17   41 1
    38   18   19 1
    39   18   42 1
    40   18   43 1
    41   19   20 1
    42   19   44 1
    43   19   45 1
    44   20   26 1
    45   20   46 1
    46   20   47 1
    47   22   26 1
    48   22   48 1
    49   23   26 2
    50   24   26 2
