@<TRIPOS>MOLECULE
*****
   38    38     0     0     0
SMALL
NO_CHARGES

@<TRIPOS>ATOM
      1 C1         -1.1255   -0.9385    0.2610 C.3       1 <0>         0.0000
      2 C2         -0.9597   -1.7707   -1.0213 C.3       1 <0>         0.0000
      3 C3          0.1939   -0.1659    0.3133 C.3       1 <0>         0.0000
      4 C4          0.5464   -2.1300   -1.0462 C.3       1 <0>         0.0000
      5 C5          0.8109   -3.5806   -0.6168 C.3       1 <0>         0.0000
      6 C6          2.3063   -3.9020   -0.5322 C.3       1 <0>         0.0000
      7 C7          6.4995   -5.1368    1.4540 C.3       1 <0>         0.0000
      8 C8          7.1130   -4.3038    2.5860 C.3       1 <0>         0.0000
      9 C9          2.5483   -5.3372   -0.0739 C.3       1 <0>         0.0000
     10 C10         5.0145   -4.8066    1.2994 C.3       1 <0>         0.0000
     11 C11         8.5897   -4.5742    2.7808 C.3       1 <0>         0.0000
     12 N1          1.1849   -1.1783   -0.0969 N.3       1 <0>         0.0000
     13 O1          4.9277   -5.3694   -1.3099 O.2       1 <0>         0.0000
     14 O2          4.3839   -7.2233    0.3651 O.2       1 <0>         0.0000
     15 F1          9.0952   -3.8222    3.7921 F         1 <0>         0.0000
     16 F2          8.8349   -5.8726    3.0885 F         1 <0>         0.0000
     17 F3          9.3117   -4.2839    1.6691 F         1 <0>         0.0000
     18 S1          4.3035   -5.8101   -0.0480 S.o2      1 <0>         0.0000
     19 H1         -2.0009   -0.2837    0.2399 H         1 <0>         0.0000
     20 H2         -1.2093   -1.5913    1.1367 H         1 <0>         0.0000
     21 H3         -1.5979   -2.6587   -1.0428 H         1 <0>         0.0000
     22 H4         -1.2159   -1.1602   -1.8938 H         1 <0>         0.0000
     23 H5          0.1484    0.6939   -0.3758 H         1 <0>         0.0000
     24 H6          0.4257    0.2160    1.3133 H         1 <0>         0.0000
     25 H7          0.9478   -1.9972   -2.0610 H         1 <0>         0.0000
     26 H8          0.3415   -3.7447    0.3620 H         1 <0>         0.0000
     27 H9          0.3237   -4.2588   -1.3299 H         1 <0>         0.0000
     28 H10         2.7651   -3.1948    0.1658 H         1 <0>         0.0000
     29 H11         2.7807   -3.7569   -1.5087 H         1 <0>         0.0000
     30 H12         7.0164   -4.9280    0.5137 H         1 <0>         0.0000
     31 H13         6.6156   -6.2023    1.6674 H         1 <0>         0.0000
     32 H14         7.0101   -3.2324    2.3884 H         1 <0>         0.0000
     33 H15         6.6221   -4.5141    3.5411 H         1 <0>         0.0000
     34 H16         2.1617   -5.5381    0.9300 H         1 <0>         0.0000
     35 H17         2.1065   -6.0686   -0.7589 H         1 <0>         0.0000
     36 H18         4.4460   -5.0463    2.2030 H         1 <0>         0.0000
     37 H19         4.8588   -3.7574    1.0354 H         1 <0>         0.0000
     38 H20         2.0085   -0.7468   -0.5044 H         1 <0>         0.0000
@<TRIPOS>BOND
     1    1    2 1
     2    1    3 1
     3    1   19 1
     4    1   20 1
     5    2    4 1
     6    2   21 1
     7    2   22 1
     8    3   12 1
     9    3   23 1
    10    3   24 1
    11    4    5 1
    12    4   12 1
    13    4   25 1
    14    5    6 1
    15    5   26 1
    16    5   27 1
    17    6    9 1
    18    6   28 1
    19    6   29 1
    20    7    8 1
    21    7   10 1
    22    7   30 1
    23    7   31 1
    24    8   11 1
    25    8   32 1
    26    8   33 1
    27    9   18 1
    28    9   34 1
    29    9   35 1
    30   10   18 1
    31   10   36 1
    32   10   37 1
    33   11   15 1
    34   11   16 1
    35   11   17 1
    36   12   38 1
    37   13   18 2
    38   14   18 2
