@<TRIPOS>MOLECULE
*****
   39    39     0     0     0
SMALL
NO_CHARGES

@<TRIPOS>ATOM
      1 C1          0.5992   -1.9112   -0.5787 C.3       1 <0>         0.0000
      2 C2          1.0193   -2.6750    0.6830 C.3       1 <0>         0.0000
      3 C3         -0.9277   -1.8867   -0.4927 C.3       1 <0>         0.0000
      4 C4          0.1063   -2.1204    1.7795 C.3       1 <0>         0.0000
      5 C5         -0.1563   -3.0112    2.9903 C.3       1 <0>         0.0000
      6 C6          1.1470   -3.2717    3.7595 C.3       1 <0>         0.0000
      7 C7          3.5188   -5.5924    8.0447 C.3       1 <0>         0.0000
      8 C8          3.2447   -6.4270    9.3019 C.3       1 <0>         0.0000
      9 C9          0.9233   -4.1073    5.0213 C.3       1 <0>         0.0000
     10 C10         2.2142   -5.3363    7.2855 C.3       1 <0>         0.0000
     11 C11         4.5059   -6.6965   10.0996 C.3       1 <0>         0.0000
     12 N1         -1.2147   -1.8310    1.0159 N.4       1 <0>         0.0000
     13 O1          3.0352   -3.0197    6.2137 O.2       1 <0>         0.0000
     14 O2          3.3555   -5.1673    4.8645 O.2       1 <0>         0.0000
     15 F1          4.2350   -7.4378   11.1984 F         1 <0>         0.0000
     16 F2          5.4273   -7.3727    9.3700 F         1 <0>         0.0000
     17 F3          5.0899   -5.5468   10.5187 F         1 <0>         0.0000
     18 S1          2.5618   -4.3513    5.7994 S.o2      1 <0>         0.0000
     19 H1          1.0023   -0.8940   -0.5696 H         1 <0>         0.0000
     20 H2          0.9305   -2.3938   -1.4998 H         1 <0>         0.0000
     21 H3          0.8574   -3.7523    0.5625 H         1 <0>         0.0000
     22 H4          2.0693   -2.5216    0.9364 H         1 <0>         0.0000
     23 H5         -1.4076   -1.0354   -0.9751 H         1 <0>         0.0000
     24 H6         -1.3742   -2.8093   -0.8651 H         1 <0>         0.0000
     25 H7          0.4658   -1.1389    2.1004 H         1 <0>         0.0000
     26 H8         -0.8871   -2.5310    3.6532 H         1 <0>         0.0000
     27 H9         -0.5880   -3.9640    2.6544 H         1 <0>         0.0000
     28 H10         1.6041   -2.3187    4.0453 H         1 <0>         0.0000
     29 H11         1.8600   -3.7954    3.1167 H         1 <0>         0.0000
     30 H12         3.9713   -4.6373    8.3230 H         1 <0>         0.0000
     31 H13         4.2222   -6.1189    7.3948 H         1 <0>         0.0000
     32 H14         2.5468   -5.9170    9.9725 H         1 <0>         0.0000
     33 H15         2.8141   -7.3997    9.0465 H         1 <0>         0.0000
     34 H16         0.2855   -3.5955    5.7475 H         1 <0>         0.0000
     35 H17         0.5165   -5.0968    4.7942 H         1 <0>         0.0000
     36 H18         1.7501   -6.2663    6.9437 H         1 <0>         0.0000
     37 H19         1.5005   -4.7614    7.8832 H         1 <0>         0.0000
     38 H20        -1.5916   -0.9189    1.2884 H         1 <0>         0.0000
     39 H21        -1.9260   -2.5224    1.2727 H         1 <0>         0.0000
@<TRIPOS>BOND
     1    1    2 1
     2    1    3 1
     3    1   19 1
     4    1   20 1
     5    2    4 1
     6    2   21 1
     7    2   22 1
     8    3   12 1
     9    3   23 1
    10    3   24 1
    11    4    5 1
    12    4   12 1
    13    4   25 1
    14    5    6 1
    15    5   26 1
    16    5   27 1
    17    6    9 1
    18    6   28 1
    19    6   29 1
    20    7    8 1
    21    7   10 1
    22    7   30 1
    23    7   31 1
    24    8   11 1
    25    8   32 1
    26    8   33 1
    27    9   18 1
    28    9   34 1
    29    9   35 1
    30   10   18 1
    31   10   36 1
    32   10   37 1
    33   11   15 1
    34   11   16 1
    35   11   17 1
    36   12   38 1
    37   12   39 1
    38   13   18 2
    39   14   18 2
