@<TRIPOS>MOLECULE
*****
   38    38     0     0     0
SMALL
NO_CHARGES

@<TRIPOS>ATOM
      1 C1          0.6265   -3.1820    3.2120 C.3       1 <0>         0.0000
      2 C2          1.8065   -3.4465    2.2365 C.3       1 <0>         0.0000
      3 C3         -0.5418   -4.0136    2.6406 C.3       1 <0>         0.0000
      4 C4          1.2521   -4.4569    1.2112 C.3       1 <0>         0.0000
      5 C5          1.8390   -4.3307   -0.1951 C.3       1 <0>         0.0000
      6 C6          3.3619   -4.5183   -0.2742 C.3       1 <0>         0.0000
      7 C7          7.4257   -8.0987    0.3777 C.3       1 <0>         0.0000
      8 C8          7.7130   -9.5403    0.8145 C.3       1 <0>         0.0000
      9 C9          3.8066   -5.9187    0.1561 C.3       1 <0>         0.0000
     10 C10         5.9287   -7.8028    0.4765 C.3       1 <0>         0.0000
     11 C11         9.1832   -9.8945    0.7407 C.3       1 <0>         0.0000
     12 N1         -0.1872   -4.1551    1.2211 N.3       1 <0>         0.0000
     13 O1          6.2617   -5.1921    0.9308 O.2       1 <0>         0.0000
     14 O2          5.9302   -5.9821   -1.4775 O.2       1 <0>         0.0000
     15 F1          9.3966  -11.1769    1.1321 F         1 <0>         0.0000
     16 F2          9.6740   -9.7745   -0.5183 F         1 <0>         0.0000
     17 F3          9.9389   -9.1019    1.5416 F         1 <0>         0.0000
     18 S1          5.6063   -6.0854   -0.0427 S.o2      1 <0>         0.0000
     19 H1          0.8594   -3.4748    4.2393 H         1 <0>         0.0000
     20 H2          0.3720   -2.1193    3.2240 H         1 <0>         0.0000
     21 H3          2.0936   -2.5231    1.7239 H         1 <0>         0.0000
     22 H4          2.6968   -3.8285    2.7434 H         1 <0>         0.0000
     23 H5         -0.5966   -4.9870    3.1595 H         1 <0>         0.0000
     24 H6         -1.5118   -3.5188    2.7498 H         1 <0>         0.0000
     25 H7          1.4382   -5.4788    1.5959 H         1 <0>         0.0000
     26 H8          1.3470   -5.0511   -0.8632 H         1 <0>         0.0000
     27 H9          1.5875   -3.3338   -0.5735 H         1 <0>         0.0000
     28 H10         3.8662   -3.7759    0.3509 H         1 <0>         0.0000
     29 H11         3.6911   -4.3479   -1.3036 H         1 <0>         0.0000
     30 H12         7.9762   -7.3990    1.0119 H         1 <0>         0.0000
     31 H13         7.7585   -7.9464   -0.6522 H         1 <0>         0.0000
     32 H14         7.3973   -9.7097    1.8484 H         1 <0>         0.0000
     33 H15         7.1811  -10.2579    0.1824 H         1 <0>         0.0000
     34 H16         3.5975   -6.1161    1.2103 H         1 <0>         0.0000
     35 H17         3.3470   -6.6959   -0.4626 H         1 <0>         0.0000
     36 H18         5.3414   -8.4478   -0.1839 H         1 <0>         0.0000
     37 H19         5.5624   -7.8961    1.5034 H         1 <0>         0.0000
     38 H20        -0.7264   -4.8923    0.7709 H         1 <0>         0.0000
@<TRIPOS>BOND
     1    1    2 1
     2    1    3 1
     3    1   19 1
     4    1   20 1
     5    2    4 1
     6    2   21 1
     7    2   22 1
     8    3   12 1
     9    3   23 1
    10    3   24 1
    11    4    5 1
    12    4   12 1
    13    4   25 1
    14    5    6 1
    15    5   26 1
    16    5   27 1
    17    6    9 1
    18    6   28 1
    19    6   29 1
    20    7    8 1
    21    7   10 1
    22    7   30 1
    23    7   31 1
    24    8   11 1
    25    8   32 1
    26    8   33 1
    27    9   18 1
    28    9   34 1
    29    9   35 1
    30   10   18 1
    31   10   36 1
    32   10   37 1
    33   11   15 1
    34   11   16 1
    35   11   17 1
    36   12   38 1
    37   13   18 2
    38   14   18 2
