@<TRIPOS>MOLECULE
*****
   30    31     0     0     0
SMALL
NO_CHARGES

@<TRIPOS>ATOM
      1 C1          3.5592   -2.4094   -6.1065 C.2       1 <0>         0.0000
      2 C2          2.3422   -1.9675   -5.5539 C.2       1 <0>         0.0000
      3 C3          2.6371   -1.7074   -4.2379 C.2       1 <0>         0.0000
      4 C4          0.1891   -0.2002   -1.0604 C.3       1 <0>         0.0000
      5 C5          1.4503    0.5288   -1.5083 C.3       1 <0>         0.0000
      6 C6          0.3405   -1.6994   -1.2857 C.3       1 <0>         0.0000
      7 C7          1.7930    0.2099   -2.9618 C.3       1 <0>         0.0000
      8 C8          0.6905   -2.0183   -2.7385 C.3       1 <0>         0.0000
      9 C9          1.0473   -1.8203   -6.2399 C.3       1 <0>         0.0000
     10 C10         4.7486   -1.8904   -2.8807 C.3       1 <0>         0.0000
     11 N1          4.5532   -2.4300   -5.2146 N.2       1 <0>         0.0000
     12 N2          3.9613   -1.9977   -4.0882 N.pl3     1 <0>         0.0000
     13 N3          1.8600   -1.2437   -3.1694 N.pl3     1 <0>         0.0000
     14 H1          3.7649   -2.7201   -7.1211 H         1 <0>         0.0000
     15 H2         -0.6757    0.1745   -1.6213 H         1 <0>         0.0000
     16 H3         -0.0009    0.0001   -0.0002 H         1 <0>         0.0000
     17 H4          1.3108    1.6097   -1.3933 H         1 <0>         0.0000
     18 H5          2.2903    0.2456   -0.8618 H         1 <0>         0.0000
     19 H6          1.1228   -2.0949   -0.6257 H         1 <0>         0.0000
     20 H7         -0.5914   -2.2079   -1.0135 H         1 <0>         0.0000
     21 H8          1.0361    0.6395   -3.6301 H         1 <0>         0.0000
     22 H9          2.7541    0.6781   -3.2090 H         1 <0>         0.0000
     23 H10         0.8871   -3.0941   -2.8264 H         1 <0>         0.0000
     24 H11        -0.1619   -1.7858   -3.3893 H         1 <0>         0.0000
     25 H12         0.4548   -2.7494   -6.1809 H         1 <0>         0.0000
     26 H13         0.4360   -1.0083   -5.8074 H         1 <0>         0.0000
     27 H14         1.1680   -1.5704   -7.3093 H         1 <0>         0.0000
     28 H15         4.6896   -2.8462   -2.3535 H         1 <0>         0.0000
     29 H16         5.7856   -1.6609   -3.1414 H         1 <0>         0.0000
     30 H17         4.3489   -1.0843   -2.2591 H         1 <0>         0.0000
@<TRIPOS>BOND
     1    1    2 1
     2    1   11 2
     3    1   14 1
     4    2    3 2
     5    2    9 1
     6    3   12 1
     7    3   13 1
     8    4    6 1
     9    4    5 1
    10    4   15 1
    11    4   16 1
    12    5    7 1
    13    5   17 1
    14    5   18 1
    15    6    8 1
    16    6   19 1
    17    6   20 1
    18    7   13 1
    19    7   21 1
    20    7   22 1
    21    8   13 1
    22    8   23 1
    23    8   24 1
    24    9   25 1
    25    9   26 1
    26    9   27 1
    27   10   12 1
    28   10   28 1
    29   10   29 1
    30   10   30 1
    31   11   12 1
