@<TRIPOS>MOLECULE
*****
   62    65     0     0     0
SMALL
NO_CHARGES

@<TRIPOS>ATOM
      1 C1         -8.5178   -3.2248   -4.1879 C.ar      1 <0>         0.0000
      2 C2        -10.0822   -4.7750   -3.1573 C.ar      1 <0>         0.0000
      3 C3         -9.2960   -3.1819   -5.3381 C.ar      1 <0>         0.0000
      4 C4        -10.8591   -4.7308   -4.3144 C.ar      1 <0>         0.0000
      5 C5         -9.1789   -5.8400    0.8293 C.ar      1 <0>         0.0000
      6 C6         -8.8998   -4.0172   -3.0862 C.ar      1 <0>         0.0000
      7 C7        -10.4706   -3.9354   -5.3920 C.ar      1 <0>         0.0000
      8 C8         -8.1386   -5.6429    1.7183 C.ar      1 <0>         0.0000
      9 C9         -7.0364   -4.8687    1.2714 C.ar      1 <0>         0.0000
     10 C10        -8.1137   -4.5937   -0.7414 C.ar      1 <0>         0.0000
     11 C11        -3.8872   -4.8871    0.7455 C.3       1 <0>         0.0000
     12 C12        -3.9675   -3.4224    2.8081 C.3       1 <0>         0.0000
     13 C13        -2.6112   -4.1711    0.2723 C.3       1 <0>         0.0000
     14 C14        -2.6800   -2.7187    2.3506 C.3       1 <0>         0.0000
     15 C15         1.9267   -3.3314    0.6136 C.3       1 <0>         0.0000
     16 C16         0.7713   -1.1886   -0.0029 C.3       1 <0>         0.0000
     17 C17         0.5677   -4.0159    0.7301 C.3       1 <0>         0.0000
     18 C18        -0.5731   -1.8979    0.1075 C.3       1 <0>         0.0000
     19 C19        -4.7600   -3.9604    1.6112 C.3       1 <0>         0.0000
     20 C20        -1.8390   -3.6684    1.4925 C.3       1 <0>         0.0000
     21 C21         1.8982   -2.1533   -0.3729 C.3       1 <0>         0.0000
     22 N1         -9.1863   -5.3223   -0.4094 N.ar      1 <0>         0.0000
     23 N2         -7.0317   -4.3548    0.0372 N.ar      1 <0>         0.0000
     24 N3        -12.5525   -2.6136   -6.5775 N.pl3     1 <0>         0.0000
     25 N4         -8.0339   -4.0038   -1.9806 N.pl3     1 <0>         0.0000
     26 N5         -5.9653   -4.6170    2.0832 N.pl3     1 <0>         0.0000
     27 N6         -0.4968   -3.0138    1.1318 N.4       1 <0>         0.0000
     28 O1        -10.6121   -3.4633   -7.9787 O.2       1 <0>         0.0000
     29 O2        -12.2621   -5.1268   -6.9088 O.2       1 <0>         0.0000
     30 O3          3.0979   -1.3999   -0.3254 O.3       1 <0>         0.0000
     31 S1        -11.4734   -3.8925   -6.8725 S.o2      1 <0>         0.0000
     32 Br1        -8.1762   -6.3906    3.4787 Br        1 <0>         0.0000
     33 H1         -7.5994   -2.6425   -4.1424 H         1 <0>         0.0000
     34 H2        -10.3775   -5.3887   -2.3189 H         1 <0>         0.0000
     35 H3         -8.9910   -2.5872   -6.1930 H         1 <0>         0.0000
     36 H4        -11.7599   -5.3323   -4.3855 H         1 <0>         0.0000
     37 H5        -10.0444   -6.4345    1.1143 H         1 <0>         0.0000
     38 H6         -4.4638   -5.2160   -0.1216 H         1 <0>         0.0000
     39 H7         -3.6240   -5.7826    1.3224 H         1 <0>         0.0000
     40 H8         -3.7106   -4.2493    3.4839 H         1 <0>         0.0000
     41 H9         -4.5829   -2.7217    3.3788 H         1 <0>         0.0000
     42 H10        -2.0053   -4.8554   -0.3297 H         1 <0>         0.0000
     43 H11        -2.8941   -3.3284   -0.3681 H         1 <0>         0.0000
     44 H12        -2.9496   -1.8250    1.7772 H         1 <0>         0.0000
     45 H13        -2.1105   -2.3866    3.2279 H         1 <0>         0.0000
     46 H14         2.2536   -2.9618    1.5933 H         1 <0>         0.0000
     47 H15         2.6577   -4.0837    0.2998 H         1 <0>         0.0000
     48 H16         0.6909   -0.4033   -0.7593 H         1 <0>         0.0000
     49 H17         1.0252   -0.6913    0.9414 H         1 <0>         0.0000
     50 H18         0.2456   -4.4500   -0.2182 H         1 <0>         0.0000
     51 H19         0.5738   -4.8027    1.4869 H         1 <0>         0.0000
     52 H20        -1.3631   -1.2148    0.4183 H         1 <0>         0.0000
     53 H21        -0.8641   -2.3621   -0.8358 H         1 <0>         0.0000
     54 H22        -5.0793   -3.1182    0.9884 H         1 <0>         0.0000
     55 H23        -1.5502   -4.5270    2.1079 H         1 <0>         0.0000
     56 H24         1.7155   -2.5397   -1.3879 H         1 <0>         0.0000
     57 H25       -12.4613   -1.9223   -7.3213 H         1 <0>         0.0000
     58 H26       -13.5042   -2.9765   -6.5332 H         1 <0>         0.0000
     59 H27        -7.1927   -3.4522   -2.0899 H         1 <0>         0.0000
     60 H28        -5.9309   -5.1343    2.9535 H         1 <0>         0.0000
     61 H29        -0.1653   -2.5788    2.0006 H         1 <0>         0.0000
     62 H30         3.8156   -1.8931   -0.7546 H         1 <0>         0.0000
@<TRIPOS>BOND
     1    1    3 ar
     2    1    6 ar
     3    1   33 1
     4    2    4 ar
     5    2    6 ar
     6    2   34 1
     7    3    7 ar
     8    3   35 1
     9    4    7 ar
    10    4   36 1
    11    5    8 ar
    12    5   22 ar
    13    5   37 1
    14    6   25 1
    15    7   31 1
    16    8    9 ar
    17    8   32 1
    18    9   23 ar
    19    9   26 1
    20   10   22 ar
    21   10   23 ar
    22   10   25 1
    23   11   13 1
    24   11   19 1
    25   11   38 1
    26   11   39 1
    27   12   14 1
    28   12   19 1
    29   12   40 1
    30   12   41 1
    31   13   20 1
    32   13   42 1
    33   13   43 1
    34   14   20 1
    35   14   44 1
    36   14   45 1
    37   15   17 1
    38   15   21 1
    39   15   46 1
    40   15   47 1
    41   16   18 1
    42   16   21 1
    43   16   48 1
    44   16   49 1
    45   17   27 1
    46   17   50 1
    47   17   51 1
    48   18   27 1
    49   18   52 1
    50   18   53 1
    51   19   26 1
    52   19   54 1
    53   20   27 1
    54   20   55 1
    55   21   30 1
    56   21   56 1
    57   24   31 1
    58   24   57 1
    59   24   58 1
    60   25   59 1
    61   26   60 1
    62   27   61 1
    63   28   31 2
    64   29   31 2
    65   30   62 1
