@<TRIPOS>MOLECULE
*****
   57    58     0     0     0
SMALL
NO_CHARGES

@<TRIPOS>ATOM
      1 C1         -2.7666   -1.1367   -1.1235 C.2       1 <0>         0.0000
      2 C2         -1.8500   -0.0816   -0.8086 C.2       1 <0>         0.0000
      3 C3         -0.8053   -0.5324   -0.0281 C.2       1 <0>         0.0000
      4 C4         -3.9941   -1.0336   -1.9069 C.2       1 <0>         0.0000
      5 C5         -2.4124   -2.3566   -0.5714 C.2       1 <0>         0.0000
      6 C6         -4.3147   -3.4730   -1.5239 C.2       1 <0>         0.0000
      7 C7         -2.0297    1.3365   -1.2740 C.3       1 <0>         0.0000
      8 C8         -8.5272   -1.8308   -2.4092 C.3       1 <0>         0.0000
      9 C9         -7.0015   -0.6023   -0.8383 C.3       1 <0>         0.0000
     10 C10        -7.8016   -4.1801   -0.9311 C.3       1 <0>         0.0000
     11 C11         0.3470    0.2419    0.4803 C.3       1 <0>         0.0000
     12 C12        -1.8268   -5.5647   -1.1642 C.3       1 <0>         0.0000
     13 C13        -2.7144   -4.7899   -0.1851 C.3       1 <0>         0.0000
     14 C14        -6.0654   -2.1683   -2.6282 C.3       1 <0>         0.0000
     15 C15         3.7468    1.1385   -1.2891 C.3       1 <0>         0.0000
     16 C16         2.6962    1.1088   -0.1735 C.3       1 <0>         0.0000
     17 C17        -1.3243   -6.8651   -0.5566 C.3       1 <0>         0.0000
     18 C18        -7.2136   -1.9028   -1.6180 C.3       1 <0>         0.0000
     19 N1         -4.7409   -2.2233   -1.9787 N.am      1 <0>         0.0000
     20 N2         -3.1459   -3.4898   -0.7269 N.am      1 <0>         0.0000
     21 N3          4.8695    1.9384   -0.8139 N.3       1 <0>         0.0000
     22 N4          1.4705    0.3265   -0.5814 N.4       1 <0>         0.0000
     23 O1         -4.3642   -0.0024   -2.4600 O.2       1 <0>         0.0000
     24 O2         -4.8823   -4.5172   -1.7898 O.2       1 <0>         0.0000
     25 O3         -7.2182   -2.9194   -0.6033 O.3       1 <0>         0.0000
     26 F1         -2.4121   -7.6569   -0.1657 F         1 <0>         0.0000
     27 S1         -0.9321   -2.2603    0.3419 S.3       1 <0>         0.0000
     28 H1         -3.0004    1.7216   -0.9525 H         1 <0>         0.0000
     29 H2         -1.2507    2.0022   -0.8890 H         1 <0>         0.0000
     30 H3         -2.0369    1.3877   -2.3662 H         1 <0>         0.0000
     31 H4         -8.6878   -2.7134   -3.0349 H         1 <0>         0.0000
     32 H5         -9.3731   -1.7353   -1.7227 H         1 <0>         0.0000
     33 H6         -8.5222   -0.9534   -3.0627 H         1 <0>         0.0000
     34 H7         -6.1250   -0.6822   -0.1892 H         1 <0>         0.0000
     35 H8         -7.8694   -0.4241   -0.1981 H         1 <0>         0.0000
     36 H9         -6.8648    0.2489   -1.5084 H         1 <0>         0.0000
     37 H10        -7.5738   -4.8415   -0.0929 H         1 <0>         0.0000
     38 H11        -7.3700   -4.6172   -1.8375 H         1 <0>         0.0000
     39 H12        -8.8901   -4.1037   -1.0361 H         1 <0>         0.0000
     40 H13         0.0913    1.2777    0.7082 H         1 <0>         0.0000
     41 H14         0.8129   -0.2001    1.3632 H         1 <0>         0.0000
     42 H15        -0.9547   -4.9640   -1.4521 H         1 <0>         0.0000
     43 H16        -2.4007   -5.7783   -2.0702 H         1 <0>         0.0000
     44 H17        -2.1981   -4.5990    0.7616 H         1 <0>         0.0000
     45 H18        -3.6131   -5.3625    0.0366 H         1 <0>         0.0000
     46 H19        -6.2196   -3.1189   -3.1369 H         1 <0>         0.0000
     47 H20        -6.0277   -1.3697   -3.3682 H         1 <0>         0.0000
     48 H21         4.0071    0.1081   -1.5863 H         1 <0>         0.0000
     49 H22         3.3187    1.6284   -2.1708 H         1 <0>         0.0000
     50 H23         2.3736    2.1213    0.0736 H         1 <0>         0.0000
     51 H24         3.0856    0.6363    0.7314 H         1 <0>         0.0000
     52 H25        -0.7157   -6.6879    0.3379 H         1 <0>         0.0000
     53 H26        -0.7398   -7.4395   -1.2811 H         1 <0>         0.0000
     54 H27         5.3947    2.3326   -1.5900 H         1 <0>         0.0000
     55 H28         5.5173    1.3828   -0.2601 H         1 <0>         0.0000
     56 H29         1.7297   -0.6317   -0.8438 H         1 <0>         0.0000
     57 H30         1.0577    0.7358   -1.4277 H         1 <0>         0.0000
@<TRIPOS>BOND
     1    1    2 1
     2    1    5 2
     3    1    4 1
     4    2    3 2
     5    2    7 1
     6    3   11 1
     7    3   27 1
     8    4   19 am
     9    4   23 2
    10    5   20 1
    11    5   27 1
    12    6   20 am
    13    6   19 am
    14    6   24 2
    15    7   28 1
    16    7   29 1
    17    7   30 1
    18    8   18 1
    19    8   31 1
    20    8   32 1
    21    8   33 1
    22    9   18 1
    23    9   34 1
    24    9   35 1
    25    9   36 1
    26   10   25 1
    27   10   37 1
    28   10   38 1
    29   10   39 1
    30   11   22 1
    31   11   40 1
    32   11   41 1
    33   12   13 1
    34   12   17 1
    35   12   42 1
    36   12   43 1
    37   13   20 1
    38   13   44 1
    39   13   45 1
    40   14   18 1
    41   14   19 1
    42   14   46 1
    43   14   47 1
    44   15   16 1
    45   15   21 1
    46   15   48 1
    47   15   49 1
    48   16   22 1
    49   16   50 1
    50   16   51 1
    51   17   26 1
    52   17   52 1
    53   17   53 1
    54   18   25 1
    55   21   54 1
    56   21   55 1
    57   22   56 1
    58   22   57 1
