@<TRIPOS>MOLECULE
*****
   41    42     0     0     0
SMALL
NO_CHARGES

@<TRIPOS>ATOM
      1 C1         -3.4070   -0.0007   -6.5023 C.ar      1 <0>         0.0000
      2 C2          0.4632    2.2623   -3.9823 C.ar      1 <0>         0.0000
      3 C3         -3.1150   -1.0875   -5.6718 C.ar      1 <0>         0.0000
      4 C4         -3.9548    1.1591   -5.9441 C.ar      1 <0>         0.0000
      5 C5          1.3692    2.5081   -2.9427 C.ar      1 <0>         0.0000
      6 C6         -0.4503    1.2104   -3.8678 C.ar      1 <0>         0.0000
      7 C7         -3.3640   -1.0075   -4.2986 C.ar      1 <0>         0.0000
      8 C8         -4.1999    1.2324   -4.5696 C.ar      1 <0>         0.0000
      9 C9          1.3552    1.7097   -1.7955 C.ar      1 <0>         0.0000
     10 C10        -0.4576    0.4173   -2.7156 C.ar      1 <0>         0.0000
     11 C11        -3.9035    0.1526   -3.7228 C.ar      1 <0>         0.0000
     12 C12         0.4384    0.6536   -1.6649 C.ar      1 <0>         0.0000
     13 C13        -2.5931    0.6822    0.4645 C.2       1 <0>         0.0000
     14 C14        -4.1378    0.2188   -2.2268 C.3       1 <0>         0.0000
     15 C15         0.3705   -0.1700   -0.3987 C.3       1 <0>         0.0000
     16 C16        -3.7551    1.5235   -0.0500 C.3       1 <0>         0.0000
     17 C17        -3.7898    1.5750   -1.5914 C.3       1 <0>         0.0000
     18 C18        -0.1448    0.6420    0.8083 C.3       1 <0>         0.0000
     19 N1         -1.3968    1.3442    0.5485 N.am      1 <0>         0.0000
     20 O1         -2.7108   -0.5065    0.7696 O.2       1 <0>         0.0000
     21 H1         -3.2084   -0.0559   -7.5695 H         1 <0>         0.0000
     22 H2          0.4736    2.8833   -4.8745 H         1 <0>         0.0000
     23 H3         -2.6854   -1.9940   -6.0908 H         1 <0>         0.0000
     24 H4         -4.1871    2.0106   -6.5792 H         1 <0>         0.0000
     25 H5          2.0883    3.3193   -3.0284 H         1 <0>         0.0000
     26 H6         -1.1600    1.0066   -4.6644 H         1 <0>         0.0000
     27 H7         -3.1252   -1.8560   -3.6605 H         1 <0>         0.0000
     28 H8         -4.6160    2.1469   -4.1557 H         1 <0>         0.0000
     29 H9          2.0674    1.9063   -0.9956 H         1 <0>         0.0000
     30 H10        -1.1719   -0.3963   -2.6329 H         1 <0>         0.0000
     31 H11        -3.5573   -0.5698   -1.7394 H         1 <0>         0.0000
     32 H12        -5.1893   -0.0120   -2.0079 H         1 <0>         0.0000
     33 H13         1.3603   -0.5664   -0.1404 H         1 <0>         0.0000
     34 H14        -0.2934   -1.0254   -0.5461 H         1 <0>         0.0000
     35 H15        -3.6829    2.5427    0.3467 H         1 <0>         0.0000
     36 H16        -4.6756    1.0771    0.3349 H         1 <0>         0.0000
     37 H17        -2.8222    1.9190   -1.9736 H         1 <0>         0.0000
     38 H18        -4.5276    2.3276   -1.8903 H         1 <0>         0.0000
     39 H19        -0.3047   -0.0287    1.6558 H         1 <0>         0.0000
     40 H20         0.5935    1.3923    1.1063 H         1 <0>         0.0000
     41 H21        -1.3333    2.2477    0.0971 H         1 <0>         0.0000
@<TRIPOS>BOND
     1    1    4 ar
     2    1    3 ar
     3    1   21 1
     4    2    6 ar
     5    2    5 ar
     6    2   22 1
     7    3    7 ar
     8    3   23 1
     9    4    8 ar
    10    4   24 1
    11    5    9 ar
    12    5   25 1
    13    6   10 ar
    14    6   26 1
    15    7   11 ar
    16    7   27 1
    17    8   11 ar
    18    8   28 1
    19    9   12 ar
    20    9   29 1
    21   10   12 ar
    22   10   30 1
    23   11   14 1
    24   12   15 1
    25   13   16 1
    26   13   19 am
    27   13   20 2
    28   14   17 1
    29   14   31 1
    30   14   32 1
    31   15   18 1
    32   15   33 1
    33   15   34 1
    34   16   17 1
    35   16   35 1
    36   16   36 1
    37   17   37 1
    38   17   38 1
    39   18   19 1
    40   18   39 1
    41   18   40 1
    42   19   41 1
