@<TRIPOS>MOLECULE
*****
   20    20     0     0     0
SMALL
NO_CHARGES

@<TRIPOS>ATOM
      1 C1          2.2809    1.2878    4.0690 C.2       1 <0>         0.0000
      2 C2          2.7331    1.0943    5.3651 C.2       1 <0>         0.0000
      3 C3          3.0227   -0.2958    5.4872 C.2       1 <0>         0.0000
      4 C4          0.5768   -0.8342    1.8813 C.2       1 <0>         0.0000
      5 C5          3.6206   -1.0448    6.6393 C.3       1 <0>         0.0000
      6 C6         -0.2242   -1.2639    3.0844 C.3       1 <0>         0.0000
      7 C7          1.9916   -0.2679    2.1010 C.3       1 <0>         0.0000
      8 N1          2.7923   -0.8979    4.3130 N.2       1 <0>         0.0000
      9 N2          2.3392    0.0691    3.4680 N.pl3     1 <0>         0.0000
     10 O1          0.1722   -0.9252    0.7354 O.2       1 <0>         0.0000
     11 I1          2.4443    2.5012    7.0034 I         1 <0>         0.0000
     12 H1          1.9510    2.1775    3.5504 H         1 <0>         0.0000
     13 H2          3.0570   -0.8612    7.5586 H         1 <0>         0.0000
     14 H3          3.6365   -2.1152    6.4278 H         1 <0>         0.0000
     15 H4          4.6457   -0.7071    6.8211 H         1 <0>         0.0000
     16 H5         -0.4217   -0.4008    3.7300 H         1 <0>         0.0000
     17 H6         -1.1673   -1.7037    2.7581 H         1 <0>         0.0000
     18 H7          0.3497   -1.9752    3.6869 H         1 <0>         0.0000
     19 H8          2.1047    0.6160    1.4701 H         1 <0>         0.0000
     20 H9          2.7013   -1.0204    1.7464 H         1 <0>         0.0000
@<TRIPOS>BOND
     1    1    2 2
     2    1    9 1
     3    1   12 1
     4    2    3 1
     5    2   11 1
     6    3    5 1
     7    3    8 2
     8    4    6 1
     9    4    7 1
    10    4   10 2
    11    5   13 1
    12    5   14 1
    13    5   15 1
    14    6   16 1
    15    6   17 1
    16    6   18 1
    17    7    9 1
    18    7   19 1
    19    7   20 1
    20    8    9 1
