@<TRIPOS>MOLECULE
*****
   42    45     0     0     0
SMALL
NO_CHARGES

@<TRIPOS>ATOM
      1 C1         -0.1388    3.6686   11.5309 C.ar      1 <0>         0.0000
      2 C2         -0.8742    4.7467   11.0269 C.ar      1 <0>         0.0000
      3 C3          0.4544    2.7627   10.6446 C.ar      1 <0>         0.0000
      4 C4          2.6581    0.6309    1.0074 C.ar      1 <0>         0.0000
      5 C5         -1.0199    4.9262    9.6501 C.ar      1 <0>         0.0000
      6 C6          0.3189    2.9265    9.2652 C.ar      1 <0>         0.0000
      7 C7          1.5769   -0.0234    0.4228 C.ar      1 <0>         0.0000
      8 C8          0.1198    1.0100    2.0804 C.ar      1 <0>         0.0000
      9 C9          2.5117    1.4792    2.1139 C.ar      1 <0>         0.0000
     10 C10        -0.4191    4.0115    8.7782 C.ar      1 <0>         0.0000
     11 C11         1.2221    1.6725    2.6498 C.ar      1 <0>         0.0000
     12 C12         0.3215    0.1860    0.9873 C.ar      1 <0>         0.0000
     13 C13        -0.3716    3.8685    5.3009 C.2       1 <0>         0.0000
     14 C14        -1.1950    5.0075    5.5250 C.2       1 <0>         0.0000
     15 C15        -0.1007    3.2415    3.9774 C.2       1 <0>         0.0000
     16 C16         3.7449    2.1275    2.7127 C.3       1 <0>         0.0000
     17 C17         3.3939    3.1855    3.7574 C.3       1 <0>         0.0000
     18 C18         2.2520    2.6810    4.6378 C.3       1 <0>         0.0000
     19 C19        -1.8858    5.9010    4.5472 C.3       1 <0>         0.0000
     20 N1          0.0053    3.3729    6.4885 N.2       1 <0>         0.0000
     21 N2         -1.2873    5.1902    6.8437 N.2       1 <0>         0.0000
     22 N3         -0.5621    4.1882    7.3753 N.pl3     1 <0>         0.0000
     23 N4          1.0467    2.4829    3.8140 N.am      1 <0>         0.0000
     24 O1         -0.9391    3.4010    3.0878 O.2       1 <0>         0.0000
     25 F1         -0.7533   -0.4494    0.4484 F         1 <0>         0.0000
     26 H1         -0.0301    3.5347   12.6035 H         1 <0>         0.0000
     27 H2         -1.3396    5.4547   11.7071 H         1 <0>         0.0000
     28 H3          1.0250    1.9206   11.0266 H         1 <0>         0.0000
     29 H4          3.6532    0.4853    0.5928 H         1 <0>         0.0000
     30 H5         -1.5875    5.7561    9.2460 H         1 <0>         0.0000
     31 H6          0.7694    2.2289    8.5689 H         1 <0>         0.0000
     32 H7          1.6905   -0.6740   -0.4383 H         1 <0>         0.0000
     33 H8         -0.8806    1.1401    2.4695 H         1 <0>         0.0000
     34 H9          4.3591    1.3473    3.1816 H         1 <0>         0.0000
     35 H10         4.3575    2.5620    1.9154 H         1 <0>         0.0000
     36 H11         4.2652    3.4173    4.3790 H         1 <0>         0.0000
     37 H12         3.0774    4.1166    3.2737 H         1 <0>         0.0000
     38 H13         2.5195    1.7288    5.1113 H         1 <0>         0.0000
     39 H14         2.0300    3.3883    5.4291 H         1 <0>         0.0000
     40 H15        -2.6776    5.3547    4.0282 H         1 <0>         0.0000
     41 H16        -2.3143    6.7602    5.0675 H         1 <0>         0.0000
     42 H17        -1.1909    6.2511    3.7790 H         1 <0>         0.0000
@<TRIPOS>BOND
     1    1    3 ar
     2    1    2 ar
     3    1   26 1
     4    2    5 ar
     5    2   27 1
     6    3    6 ar
     7    3   28 1
     8    4    7 ar
     9    4    9 ar
    10    4   29 1
    11    5   10 ar
    12    5   30 1
    13    6   10 ar
    14    6   31 1
    15    7   12 ar
    16    7   32 1
    17    8   11 ar
    18    8   12 ar
    19    8   33 1
    20    9   11 ar
    21    9   16 1
    22   10   22 1
    23   11   23 1
    24   12   25 1
    25   13   14 1
    26   13   15 1
    27   13   20 2
    28   14   19 1
    29   14   21 2
    30   15   23 am
    31   15   24 2
    32   16   17 1
    33   16   34 1
    34   16   35 1
    35   17   18 1
    36   17   36 1
    37   17   37 1
    38   18   23 1
    39   18   38 1
    40   18   39 1
    41   19   40 1
    42   19   41 1
    43   19   42 1
    44   20   22 1
    45   21   22 1
