@<TRIPOS>MOLECULE
*****
   36    38     0     0     0
SMALL
NO_CHARGES

@<TRIPOS>ATOM
      1 C1          3.4023    0.4455    3.7656 C.ar      1 <0>         0.0000
      2 C2          2.1175   -0.0993    3.8112 C.ar      1 <0>         0.0000
      3 C3          4.5028   -0.3418    3.4077 C.ar      1 <0>         0.0000
      4 C4          3.0021   -2.2477    3.1451 C.ar      1 <0>         0.0000
      5 C5          1.9055   -1.4511    3.4963 C.ar      1 <0>         0.0000
      6 C6          4.2717   -1.6789    3.1076 C.ar      1 <0>         0.0000
      7 C7         -0.4862   -1.1231    2.7699 C.2       1 <0>         0.0000
      8 C8          1.4726    1.1766   -1.7473 C.3       1 <0>         0.0000
      9 C9          0.4849    0.1241   -2.2230 C.3       1 <0>         0.0000
     10 C10         1.5143   -0.7651   -0.0042 C.3       1 <0>         0.0000
     11 C11        -0.3565    0.9357    0.1030 C.3       1 <0>         0.0000
     12 C12         0.5396   -1.8025    0.5744 C.3       1 <0>         0.0000
     13 C13        -1.2741   -0.1572    0.6702 C.3       1 <0>         0.0000
     14 C14         0.7472    0.3202   -0.7435 C.3       1 <0>         0.0000
     15 C15         0.5012   -2.0273    3.5148 C.3       1 <0>         0.0000
     16 N1         -0.4808   -1.1529    1.4000 N.am      1 <0>         0.0000
     17 O1         -1.2390   -0.3848    3.4128 O.2       1 <0>         0.0000
     18 F1          5.3239   -2.4660    2.7573 F         1 <0>         0.0000
     19 H1          3.5529    1.4941    4.0079 H         1 <0>         0.0000
     20 H2          1.2690    0.5230    4.0818 H         1 <0>         0.0000
     21 H3          5.5103    0.0597    3.3618 H         1 <0>         0.0000
     22 H4          2.8845   -3.2988    2.8953 H         1 <0>         0.0000
     23 H5          2.5312    0.9909   -1.9100 H         1 <0>         0.0000
     24 H6          1.1830    2.2208   -1.8335 H         1 <0>         0.0000
     25 H7         -0.4643    0.4649   -2.6283 H         1 <0>         0.0000
     26 H8          0.8838   -0.7645   -2.7057 H         1 <0>         0.0000
     27 H9          2.0927   -0.3238    0.8160 H         1 <0>         0.0000
     28 H10         2.2238   -1.2648   -0.6739 H         1 <0>         0.0000
     29 H11        -0.9490    1.6433   -0.4885 H         1 <0>         0.0000
     30 H12         0.0822    1.4951    0.9390 H         1 <0>         0.0000
     31 H13         0.0275   -2.3221   -0.2458 H         1 <0>         0.0000
     32 H14         1.0732   -2.5545    1.1512 H         1 <0>         0.0000
     33 H15        -2.0121    0.2546    1.3568 H         1 <0>         0.0000
     34 H16        -1.7968   -0.6697   -0.1472 H         1 <0>         0.0000
     35 H17         0.5011   -3.0465    3.1191 H         1 <0>         0.0000
     36 H18         0.1284   -2.0711    4.5409 H         1 <0>         0.0000
@<TRIPOS>BOND
     1    1    2 ar
     2    1    3 ar
     3    1   19 1
     4    2    5 ar
     5    2   20 1
     6    3    6 ar
     7    3   21 1
     8    4    5 ar
     9    4    6 ar
    10    4   22 1
    11    5   15 1
    12    6   18 1
    13    7   15 1
    14    7   16 am
    15    7   17 2
    16    8    9 1
    17    8   14 1
    18    8   23 1
    19    8   24 1
    20    9   14 1
    21    9   25 1
    22    9   26 1
    23   10   12 1
    24   10   14 1
    25   10   27 1
    26   10   28 1
    27   11   13 1
    28   11   14 1
    29   11   29 1
    30   11   30 1
    31   12   16 1
    32   12   31 1
    33   12   32 1
    34   13   16 1
    35   13   33 1
    36   13   34 1
    37   15   35 1
    38   15   36 1
