@<TRIPOS>MOLECULE
*****
   20    20     0     0     0
SMALL
NO_CHARGES

@<TRIPOS>ATOM
      1 C1          4.1113    1.7110    5.2914 C.2       1 <0>         0.0000
      2 C2          4.7070    0.8968    6.2419 C.2       1 <0>         0.0000
      3 C3          4.5277   -0.4470    5.7994 C.2       1 <0>         0.0000
      4 C4          1.8194    2.1334    3.1561 C.2       1 <0>         0.0000
      5 C5          5.0072   -1.7270    6.4140 C.3       1 <0>         0.0000
      6 C6          0.9591    2.1879    1.9107 C.3       1 <0>         0.0000
      7 C7          3.0201    1.1870    3.0663 C.3       1 <0>         0.0000
      8 N1          3.8948   -0.4404    4.6215 N.2       1 <0>         0.0000
      9 N2          3.6397    0.8708    4.3325 N.pl3     1 <0>         0.0000
     10 O1          1.5898    2.8014    4.1469 O.2       1 <0>         0.0000
     11 I1          5.1310    1.5255    8.2919 I         1 <0>         0.0000
     12 H1          3.9819    2.7812    5.2378 H         1 <0>         0.0000
     13 H2          4.6578   -1.8175    7.4470 H         1 <0>         0.0000
     14 H3          4.6505   -2.5803    5.8348 H         1 <0>         0.0000
     15 H4          6.1010   -1.7519    6.4446 H         1 <0>         0.0000
     16 H5          0.3148    1.3006    1.8862 H         1 <0>         0.0000
     17 H6          0.3310    3.0796    1.9294 H         1 <0>         0.0000
     18 H7          1.5670    2.1708    1.0000 H         1 <0>         0.0000
     19 H8          3.7442    1.6464    2.3780 H         1 <0>         0.0000
     20 H9          2.7203    0.2356    2.6203 H         1 <0>         0.0000
@<TRIPOS>BOND
     1    1    2 2
     2    1    9 1
     3    1   12 1
     4    2    3 1
     5    2   11 1
     6    3    5 1
     7    3    8 2
     8    4    6 1
     9    4    7 1
    10    4   10 2
    11    5   13 1
    12    5   14 1
    13    5   15 1
    14    6   16 1
    15    6   17 1
    16    6   18 1
    17    7    9 1
    18    7   19 1
    19    7   20 1
    20    8    9 1
