@<TRIPOS>MOLECULE
*****
   49    52     0     0     0
SMALL
NO_CHARGES

@<TRIPOS>ATOM
      1 C1          1.6322    6.1653   -3.2955 C.2       1 <0>         0.0000
      2 C2         -0.0531    4.4363   -3.1882 C.2       1 <0>         0.0000
      3 C3         -2.3192   -1.1589    0.2471 C.2       1 <0>         0.0000
      4 C4         -2.9316    2.0896   -3.3770 C.3       1 <0>         0.0000
      5 C5         -2.9885   -0.0910   -1.9854 C.3       1 <0>         0.0000
      6 C6         -1.9585    3.1335   -3.9220 C.3       1 <0>         0.0000
      7 C7          0.0030   -2.0436    0.6673 C.3       1 <0>         0.0000
      8 C8         -1.7137   -2.1574    2.3955 C.3       1 <0>         0.0000
      9 C9          0.8838   -1.2290    1.6163 C.3       1 <0>         0.0000
     10 C10        -0.8123   -1.3416    3.3222 C.3       1 <0>         0.0000
     11 C11        -0.7958    2.5474   -1.7591 C.3       1 <0>         0.0000
     12 C12        -1.8843   -0.7539   -1.1711 C.3       1 <0>         0.0000
     13 C13        -2.2096    0.7965   -2.9709 C.3       1 <0>         0.0000
     14 C14        -0.8854    1.0914   -2.2177 C.3       1 <0>         0.0000
     15 C15         2.7598    7.1319   -3.1102 C.3       1 <0>         0.0000
     16 C16         1.4757   -0.8586    3.9267 C.3       1 <0>         0.0000
     17 N1          0.8679    6.1187   -4.3411 N.2       1 <0>         0.0000
     18 N2         -0.0974    5.1410   -4.2985 N.2       1 <0>         0.0000
     19 N3         -0.9207    3.4252   -2.9178 N.pl3     1 <0>         0.0000
     20 N4         -1.4086   -1.8467    0.9978 N.am      1 <0>         0.0000
     21 N5          0.5991   -1.5773    3.0095 N.3       1 <0>         0.0000
     22 O1         -3.4522   -0.8882    0.6539 O.2       1 <0>         0.0000
     23 O2         -0.8438    0.2405   -1.0635 O.3       1 <0>         0.0000
     24 S1          1.2208    4.9496   -2.0721 S.3       1 <0>         0.0000
     25 H1         -3.4649    2.5051   -2.5148 H         1 <0>         0.0000
     26 H2         -3.6879    1.8808   -4.1398 H         1 <0>         0.0000
     27 H3         -3.6324   -0.8207   -2.4818 H         1 <0>         0.0000
     28 H4         -3.6126    0.5046   -1.3154 H         1 <0>         0.0000
     29 H5         -1.4832    2.7818   -4.8473 H         1 <0>         0.0000
     30 H6         -2.4756    4.0646   -4.1706 H         1 <0>         0.0000
     31 H7          0.2039   -1.7449   -0.3584 H         1 <0>         0.0000
     32 H8          0.2379   -3.1093    0.7799 H         1 <0>         0.0000
     33 H9         -1.5381   -3.2271    2.5612 H         1 <0>         0.0000
     34 H10        -2.7643   -1.9334    2.5748 H         1 <0>         0.0000
     35 H11         1.9364   -1.4508    1.4075 H         1 <0>         0.0000
     36 H12         0.7169   -0.1541    1.4155 H         1 <0>         0.0000
     37 H13        -1.0777   -0.2709    3.2292 H         1 <0>         0.0000
     38 H14        -0.9965   -1.6410    4.3599 H         1 <0>         0.0000
     39 H15        -1.5765    2.7468   -1.0137 H         1 <0>         0.0000
     40 H16         0.1669    2.7127   -1.2724 H         1 <0>         0.0000
     41 H17        -1.4914   -1.6335   -1.7040 H         1 <0>         0.0000
     42 H18        -1.9717    0.2270   -3.8761 H         1 <0>         0.0000
     43 H19        -0.0183    0.8721   -2.8539 H         1 <0>         0.0000
     44 H20         2.6099    7.7585   -2.2245 H         1 <0>         0.0000
     45 H21         3.7178    6.6133   -2.9964 H         1 <0>         0.0000
     46 H22         2.8101    7.7746   -3.9916 H         1 <0>         0.0000
     47 H23         2.5205   -1.0941    3.6995 H         1 <0>         0.0000
     48 H24         1.2725   -1.1751    4.9548 H         1 <0>         0.0000
     49 H25         1.3505    0.2394    3.8731 H         1 <0>         0.0000
@<TRIPOS>BOND
     1    1   15 1
     2    1   17 2
     3    1   24 1
     4    2   18 2
     5    2   19 1
     6    2   24 1
     7    3   12 1
     8    3   20 am
     9    3   22 2
    10    4    6 1
    11    4   13 1
    12    4   25 1
    13    4   26 1
    14    5   12 1
    15    5   13 1
    16    5   27 1
    17    5   28 1
    18    6   19 1
    19    6   29 1
    20    6   30 1
    21    7    9 1
    22    7   20 1
    23    7   31 1
    24    7   32 1
    25    8   10 1
    26    8   20 1
    27    8   33 1
    28    8   34 1
    29    9   21 1
    30    9   35 1
    31    9   36 1
    32   10   21 1
    33   10   37 1
    34   10   38 1
    35   11   14 1
    36   11   19 1
    37   11   39 1
    38   11   40 1
    39   12   23 1
    40   12   41 1
    41   13   14 1
    42   13   42 1
    43   14   23 1
    44   14   43 1
    45   15   44 1
    46   15   45 1
    47   15   46 1
    48   16   21 1
    49   16   47 1
    50   16   48 1
    51   16   49 1
    52   17   18 1
