@<TRIPOS>MOLECULE
*****
   18    18     0     0     0
SMALL
NO_CHARGES

@<TRIPOS>ATOM
      1 C1          4.1594   -1.4695    1.1641 C.ar      1 <0>         0.0000
      2 C2          3.3030   -0.3839    1.3465 C.ar      1 <0>         0.0000
      3 C3          2.4870   -1.3776    3.4135 C.ar      1 <0>         0.0000
      4 C4          3.3249   -2.4721    3.1961 C.ar      1 <0>         0.0000
      5 C5          4.1647   -2.5257    2.0756 C.ar      1 <0>         0.0000
      6 C6          2.4806   -0.3596    2.4702 C.ar      1 <0>         0.0000
      7 C7          4.8657   -4.4794    0.9501 C.3       1 <0>         0.0000
      8 N1          3.2908   -3.5543    4.1989 N.pl3     1 <0>         0.0000
      9 O1          3.5167   -4.7029    3.8189 O.3       1 <0>         0.0000
     10 O2          3.0108   -3.2267    5.3565 O.2       1 <0>         0.0000
     11 O3          5.0876   -3.5606    1.9435 O.3       1 <0>         0.0000
     12 F1          1.6579    0.6941    2.6573 F         1 <0>         0.0000
     13 F2          5.2092   -3.9643   -0.2665 F         1 <0>         0.0000
     14 F3          3.5655   -4.8233    0.8554 F         1 <0>         0.0000
     15 Cl1         5.8593   -5.9049    1.2753 Cl        1 <0>         0.0000
     16 H1          4.8344   -1.5049    0.3163 H         1 <0>         0.0000
     17 H2          3.2783    0.4403    0.6409 H         1 <0>         0.0000
     18 H3          1.8583   -1.3326    4.2951 H         1 <0>         0.0000
@<TRIPOS>BOND
     1    1    2 ar
     2    1    5 ar
     3    1   16 1
     4    2    6 ar
     5    2   17 1
     6    3    4 ar
     7    3    6 ar
     8    3   18 1
     9    4    5 ar
    10    4    8 1
    11    5   11 1
    12    6   12 1
    13    7   11 1
    14    7   13 1
    15    7   14 1
    16    7   15 1
    17    8    9 1
    18    8   10 2
