@<TRIPOS>MOLECULE
*****
   36    38     0     0     0
SMALL
NO_CHARGES

@<TRIPOS>ATOM
      1 C1         -0.0056   -3.3468    5.2018 C.ar      1 <0>         0.0000
      2 C2          1.9368   -4.3602    4.1914 C.ar      1 <0>         0.0000
      3 C3         -2.5409    2.9650    3.4313 C.ar      1 <0>         0.0000
      4 C4         -0.4050    2.7663    4.5106 C.ar      1 <0>         0.0000
      5 C5         -2.1395    2.0611    2.4501 C.ar      1 <0>         0.0000
      6 C6          0.0051    1.8455    3.5420 C.ar      1 <0>         0.0000
      7 C7          0.1383   -4.1656    6.3225 C.ar      1 <0>         0.0000
      8 C8          2.0907   -5.1809    5.3001 C.ar      1 <0>         0.0000
      9 C9          0.2101   -1.2843    2.9688 C.2       1 <0>         0.0000
     10 C10         0.8874   -3.4210    4.1210 C.ar      1 <0>         0.0000
     11 C11        -1.6845    3.3362    4.4821 C.ar      1 <0>         0.0000
     12 C12        -0.8643    1.4686    2.5028 C.ar      1 <0>         0.0000
     13 C13         1.1931   -5.0901    6.3776 C.ar      1 <0>         0.0000
     14 C14         0.7201   -2.5426    2.9541 C.2       1 <0>         0.0000
     15 C15         0.0372   -0.5554    1.7243 C.2       1 <0>         0.0000
     16 C16        -2.1297    4.3341    5.5266 C.3       1 <0>         0.0000
     17 C17         0.5466   -5.8807    8.5415 C.3       1 <0>         0.0000
     18 N1         -0.4866    0.5878    1.4752 N.2       1 <0>         0.0000
     19 O1          1.4260   -5.9376    7.4196 O.3       1 <0>         0.0000
     20 S1          1.1722   -3.2129    1.3825 S.3       1 <0>         0.0000
     21 S2          0.6693   -1.4651    0.3017 S.3       1 <0>         0.0000
     22 H1         -0.8439   -2.6577    5.1589 H         1 <0>         0.0000
     23 H2          2.6563   -4.4296    3.3799 H         1 <0>         0.0000
     24 H3         -3.5374    3.3997    3.3759 H         1 <0>         0.0000
     25 H4          0.2904    3.0497    5.2982 H         1 <0>         0.0000
     26 H5         -2.8038    1.7934    1.6332 H         1 <0>         0.0000
     27 H6          1.0132    1.4402    3.5696 H         1 <0>         0.0000
     28 H7         -0.5786   -4.0827    7.1313 H         1 <0>         0.0000
     29 H8          2.9046   -5.8971    5.3600 H         1 <0>         0.0000
     30 H9         -0.0893   -0.8088    3.8956 H         1 <0>         0.0000
     31 H10        -2.3488    5.3099    5.0775 H         1 <0>         0.0000
     32 H11        -3.0416    3.9999    6.0347 H         1 <0>         0.0000
     33 H12        -1.3594    4.4847    6.2883 H         1 <0>         0.0000
     34 H13         0.9173   -6.6247    9.2472 H         1 <0>         0.0000
     35 H14        -0.4813   -6.1321    8.2542 H         1 <0>         0.0000
     36 H15         0.5661   -4.8905    9.0122 H         1 <0>         0.0000
@<TRIPOS>BOND
     1    1    7 ar
     2    1   10 ar
     3    1   22 1
     4    2    8 ar
     5    2   10 ar
     6    2   23 1
     7    3    5 ar
     8    3   11 ar
     9    3   24 1
    10    4    6 ar
    11    4   11 ar
    12    4   25 1
    13    5   12 ar
    14    5   26 1
    15    6   12 ar
    16    6   27 1
    17    7   13 ar
    18    7   28 1
    19    8   13 ar
    20    8   29 1
    21    9   14 2
    22    9   15 1
    23    9   30 1
    24   10   14 1
    25   11   16 1
    26   12   18 1
    27   13   19 1
    28   14   20 1
    29   15   18 2
    30   15   21 1
    31   16   31 1
    32   16   32 1
    33   16   33 1
    34   17   19 1
    35   17   34 1
    36   17   35 1
    37   17   36 1
    38   20   21 1
