@<TRIPOS>MOLECULE
*****
   40    43     0     0     0
SMALL
NO_CHARGES

@<TRIPOS>ATOM
      1 C1          1.0274   -1.0829    0.4602 C.ar      1 <0>         0.0000
      2 C2         -0.0574   -0.8442   -0.3917 C.ar      1 <0>         0.0000
      3 C3          1.9681   -2.0562    0.1224 C.ar      1 <0>         0.0000
      4 C4         -0.1846   -1.5822   -1.5688 C.ar      1 <0>         0.0000
      5 C5          5.6755   -2.3224   -7.5432 C.ar      1 <0>         0.0000
      6 C6          4.6621   -2.6234   -6.6312 C.ar      1 <0>         0.0000
      7 C7          5.9500   -4.5082   -5.7273 C.ar      1 <0>         0.0000
      8 C8          1.8466   -2.8029   -1.0586 C.ar      1 <0>         0.0000
      9 C9          0.7584   -2.5595   -1.9140 C.ar      1 <0>         0.0000
     10 C10         6.8277   -3.1112   -7.5514 C.ar      1 <0>         0.0000
     11 C11         4.7913   -3.7058   -5.7277 C.ar      1 <0>         0.0000
     12 C12         6.9304   -4.1766   -6.6472 C.ar      1 <0>         0.0000
     13 C13         8.7203   -4.0512   -7.8906 C.2       1 <0>         0.0000
     14 C14         2.5491   -3.4808   -4.5965 C.2       1 <0>         0.0000
     15 C15         2.8882   -3.8504   -1.4092 C.3       1 <0>         0.0000
     16 C16         0.5700   -3.3528   -3.1983 C.3       1 <0>         0.0000
     17 C17         2.3483   -4.8161   -2.4669 C.3       1 <0>         0.0000
     18 C18        10.0668   -4.4889   -8.3448 C.3       1 <0>         0.0000
     19 N1          7.9966   -3.0697   -8.3270 N.2       1 <0>         0.0000
     20 N2          1.7791   -4.0754   -3.5951 N.am      1 <0>         0.0000
     21 N3          3.8041   -4.0430   -4.7753 N.am      1 <0>         0.0000
     22 O1          2.1224   -2.5559   -5.2868 O.2       1 <0>         0.0000
     23 O2          8.1469   -4.7876   -6.8584 O.3       1 <0>         0.0000
     24 H1          1.1382   -0.5139    1.3796 H         1 <0>         0.0000
     25 H2         -0.7939   -0.0847   -0.1424 H         1 <0>         0.0000
     26 H3          2.8113   -2.2449    0.7846 H         1 <0>         0.0000
     27 H4         -1.0221   -1.3923   -2.2375 H         1 <0>         0.0000
     28 H5          5.5659   -1.4904   -8.2323 H         1 <0>         0.0000
     29 H6          3.7574   -2.0339   -6.6043 H         1 <0>         0.0000
     30 H7          6.0698   -5.3438   -5.0424 H         1 <0>         0.0000
     31 H8          3.7915   -3.3604   -1.7952 H         1 <0>         0.0000
     32 H9          3.1852   -4.4036   -0.5106 H         1 <0>         0.0000
     33 H10        -0.2384   -4.0841   -3.0663 H         1 <0>         0.0000
     34 H11         0.2906   -2.6915   -4.0171 H         1 <0>         0.0000
     35 H12         3.1080   -5.5324   -2.7895 H         1 <0>         0.0000
     36 H13         1.5384   -5.4200   -2.0432 H         1 <0>         0.0000
     37 H14        10.7838   -4.4575   -7.5179 H         1 <0>         0.0000
     38 H15        10.0341   -5.5180   -8.7175 H         1 <0>         0.0000
     39 H16        10.4056   -3.8273   -9.1423 H         1 <0>         0.0000
     40 H17         4.0291   -4.8547   -4.2208 H         1 <0>         0.0000
@<TRIPOS>BOND
     1    1    2 ar
     2    1    3 ar
     3    1   24 1
     4    2    4 ar
     5    2   25 1
     6    3    8 ar
     7    3   26 1
     8    4    9 ar
     9    4   27 1
    10    5    6 ar
    11    5   10 ar
    12    5   28 1
    13    6   11 ar
    14    6   29 1
    15    7   11 ar
    16    7   12 ar
    17    7   30 1
    18    8    9 ar
    19    8   15 1
    20    9   16 1
    21   10   12 ar
    22   10   19 1
    23   11   21 1
    24   12   23 1
    25   13   18 1
    26   13   19 2
    27   13   23 1
    28   14   20 am
    29   14   21 am
    30   14   22 2
    31   15   17 1
    32   15   31 1
    33   15   32 1
    34   16   20 1
    35   16   33 1
    36   16   34 1
    37   17   20 1
    38   17   35 1
    39   17   36 1
    40   18   37 1
    41   18   38 1
    42   18   39 1
    43   21   40 1
