@<TRIPOS>MOLECULE
*****
   49    52     0     0     0
SMALL
NO_CHARGES

@<TRIPOS>ATOM
      1 C1         -5.2699    4.8900   -4.3073 C.2       1 <0>         0.0000
      2 C2         -4.7080    2.7959   -3.2398 C.2       1 <0>         0.0000
      3 C3         -2.9320   -1.3626    0.2823 C.2       1 <0>         0.0000
      4 C4         -5.3296   -0.7922   -2.3731 C.3       1 <0>         0.0000
      5 C5         -3.3847   -2.4522   -1.9949 C.3       1 <0>         0.0000
      6 C6         -5.6856    0.5522   -3.0079 C.3       1 <0>         0.0000
      7 C7         -2.6225   -0.1677    2.3947 C.3       1 <0>         0.0000
      8 C8         -0.7048   -0.3309    0.8861 C.3       1 <0>         0.0000
      9 C9         -1.7346   -0.6360    3.5452 C.3       1 <0>         0.0000
     10 C10         0.1499   -0.7948    2.0657 C.3       1 <0>         0.0000
     11 C11        -3.4448    1.1100   -1.9958 C.3       1 <0>         0.0000
     12 C12        -2.3400   -1.8133   -1.0757 C.3       1 <0>         0.0000
     13 C13        -3.9390   -1.2678   -2.8203 C.3       1 <0>         0.0000
     14 C14        -2.8663   -0.1567   -2.6389 C.3       1 <0>         0.0000
     15 C15        -5.8516    6.0530   -5.0487 C.3       1 <0>         0.0000
     16 C16         0.5072   -0.6076    4.4460 C.3       1 <0>         0.0000
     17 N1         -4.1352    4.9124   -3.6794 N.2       1 <0>         0.0000
     18 N2         -3.8002    3.7325   -3.0634 N.2       1 <0>         0.0000
     19 N3         -4.6280    1.5324   -2.7460 N.pl3     1 <0>         0.0000
     20 N4         -2.1084   -0.6723    1.1203 N.am      1 <0>         0.0000
     21 N5         -0.3446   -0.2361    3.3225 N.3       1 <0>         0.0000
     22 O1         -4.1063   -1.6216    0.5756 O.2       1 <0>         0.0000
     23 O2         -1.8170   -0.7032   -1.8211 O.3       1 <0>         0.0000
     24 S1         -6.0930    3.3241   -4.2063 S.3       1 <0>         0.0000
     25 H1         -5.3698   -0.7236   -1.2835 H         1 <0>         0.0000
     26 H2         -6.0862   -1.5264   -2.6678 H         1 <0>         0.0000
     27 H3         -2.8849   -3.1719   -2.6484 H         1 <0>         0.0000
     28 H4         -4.1605   -2.9674   -1.4281 H         1 <0>         0.0000
     29 H5         -5.8103    0.4308   -4.0945 H         1 <0>         0.0000
     30 H6         -6.6416    0.9174   -2.6092 H         1 <0>         0.0000
     31 H7         -3.6433   -0.5273    2.5169 H         1 <0>         0.0000
     32 H8         -2.6305    0.9296    2.3628 H         1 <0>         0.0000
     33 H9         -0.6200    0.7578    0.7792 H         1 <0>         0.0000
     34 H10        -0.3479   -0.7759   -0.0383 H         1 <0>         0.0000
     35 H11        -2.0871   -0.1809    4.4771 H         1 <0>         0.0000
     36 H12        -1.8300   -1.7345    3.6509 H         1 <0>         0.0000
     37 H13         0.1609   -1.9033    2.0902 H         1 <0>         0.0000
     38 H14         1.1802   -0.4565    1.9105 H         1 <0>         0.0000
     39 H15        -3.7034    0.9220   -0.9474 H         1 <0>         0.0000
     40 H16        -2.7182    1.9199   -2.0211 H         1 <0>         0.0000
     41 H17        -1.4998   -2.4891   -0.8858 H         1 <0>         0.0000
     42 H18        -3.9935   -1.5434   -3.8783 H         1 <0>         0.0000
     43 H19        -2.4046    0.1147   -3.5925 H         1 <0>         0.0000
     44 H20        -6.0071    5.8181   -6.1072 H         1 <0>         0.0000
     45 H21        -6.8162    6.3560   -4.6270 H         1 <0>         0.0000
     46 H22        -5.1562    6.8915   -4.9728 H         1 <0>         0.0000
     47 H23         0.1365   -0.1349    5.3611 H         1 <0>         0.0000
     48 H24         1.5271   -0.2513    4.2695 H         1 <0>         0.0000
     49 H25         0.5477   -1.7004    4.6147 H         1 <0>         0.0000
@<TRIPOS>BOND
     1    1   15 1
     2    1   17 2
     3    1   24 1
     4    2   18 2
     5    2   19 1
     6    2   24 1
     7    3   12 1
     8    3   20 am
     9    3   22 2
    10    4    6 1
    11    4   13 1
    12    4   25 1
    13    4   26 1
    14    5   12 1
    15    5   13 1
    16    5   27 1
    17    5   28 1
    18    6   19 1
    19    6   29 1
    20    6   30 1
    21    7    9 1
    22    7   20 1
    23    7   31 1
    24    7   32 1
    25    8   10 1
    26    8   20 1
    27    8   33 1
    28    8   34 1
    29    9   21 1
    30    9   35 1
    31    9   36 1
    32   10   21 1
    33   10   37 1
    34   10   38 1
    35   11   14 1
    36   11   19 1
    37   11   39 1
    38   11   40 1
    39   12   23 1
    40   12   41 1
    41   13   14 1
    42   13   42 1
    43   14   23 1
    44   14   43 1
    45   15   44 1
    46   15   45 1
    47   15   46 1
    48   16   21 1
    49   16   47 1
    50   16   48 1
    51   16   49 1
    52   17   18 1
