@<TRIPOS>MOLECULE
*****
   36    38     0     0     0
SMALL
NO_CHARGES

@<TRIPOS>ATOM
      1 C1          1.9762    3.7830    3.0139 C.ar      1 <0>         0.0000
      2 C2          1.3221    2.6137    3.4069 C.ar      1 <0>         0.0000
      3 C3          1.2557    4.9523    2.7447 C.ar      1 <0>         0.0000
      4 C4         -0.8033    3.7576    3.2786 C.ar      1 <0>         0.0000
      5 C5         -0.0756    2.5898    3.5382 C.ar      1 <0>         0.0000
      6 C6         -0.1259    4.9089    2.8885 C.ar      1 <0>         0.0000
      7 C7         -0.2833    0.1146    3.1082 C.2       1 <0>         0.0000
      8 C8          0.7107    1.2016   -2.1201 C.3       1 <0>         0.0000
      9 C9         -0.5497    0.3523   -2.1167 C.3       1 <0>         0.0000
     10 C10         0.8369   -0.3661   -0.0337 C.3       1 <0>         0.0000
     11 C11        -0.5716    1.7328    0.0897 C.3       1 <0>         0.0000
     12 C12        -0.1278   -1.0326    0.9578 C.3       1 <0>         0.0000
     13 C13        -1.4869    1.0022    1.0845 C.3       1 <0>         0.0000
     14 C14         0.1273    0.7296   -0.8146 C.3       1 <0>         0.0000
     15 C15        -0.7828    1.3056    3.9323 C.3       1 <0>         0.0000
     16 N1         -0.7412   -0.0189    1.8236 N.am      1 <0>         0.0000
     17 O1          0.5239   -0.6752    3.6082 O.2       1 <0>         0.0000
     18 F1         -0.8497    6.0316    2.6336 F         1 <0>         0.0000
     19 H1          3.0581    3.7879    2.9122 H         1 <0>         0.0000
     20 H2          1.8904    1.7091    3.6048 H         1 <0>         0.0000
     21 H3          1.7416    5.8722    2.4346 H         1 <0>         0.0000
     22 H4         -1.8860    3.7845    3.3690 H         1 <0>         0.0000
     23 H5          1.6328    0.7408   -2.4650 H         1 <0>         0.0000
     24 H6          0.6138    2.2540   -2.3743 H         1 <0>         0.0000
     25 H7         -1.4888    0.8374   -2.3709 H         1 <0>         0.0000
     26 H8         -0.4702   -0.6757   -2.4606 H         1 <0>         0.0000
     27 H9          1.6782    0.0604    0.5271 H         1 <0>         0.0000
     28 H10         1.2468   -1.1223   -0.7132 H         1 <0>         0.0000
     29 H11        -1.1654    2.4406   -0.5003 H         1 <0>         0.0000
     30 H12         0.1703    2.3142    0.6495 H         1 <0>         0.0000
     31 H13        -0.9297   -1.5466    0.4132 H         1 <0>         0.0000
     32 H14         0.3844   -1.7534    1.5933 H         1 <0>         0.0000
     33 H15        -1.9506    1.7062    1.7717 H         1 <0>         0.0000
     34 H16        -2.2947    0.4985    0.5379 H         1 <0>         0.0000
     35 H17        -0.5484    1.0527    4.9690 H         1 <0>         0.0000
     36 H18        -1.8667    1.4283    3.8586 H         1 <0>         0.0000
@<TRIPOS>BOND
     1    1    2 ar
     2    1    3 ar
     3    1   19 1
     4    2    5 ar
     5    2   20 1
     6    3    6 ar
     7    3   21 1
     8    4    5 ar
     9    4    6 ar
    10    4   22 1
    11    5   15 1
    12    6   18 1
    13    7   15 1
    14    7   16 am
    15    7   17 2
    16    8    9 1
    17    8   14 1
    18    8   23 1
    19    8   24 1
    20    9   14 1
    21    9   25 1
    22    9   26 1
    23   10   12 1
    24   10   14 1
    25   10   27 1
    26   10   28 1
    27   11   13 1
    28   11   14 1
    29   11   29 1
    30   11   30 1
    31   12   16 1
    32   12   31 1
    33   12   32 1
    34   13   16 1
    35   13   33 1
    36   13   34 1
    37   15   35 1
    38   15   36 1
