@<TRIPOS>MOLECULE
*****
   18    18     0     0     0
SMALL
NO_CHARGES

@<TRIPOS>ATOM
      1 C1          3.0172   -1.2690   -0.6386 C.ar      1 <0>         0.0000
      2 C2          1.9467   -0.7655    0.0999 C.ar      1 <0>         0.0000
      3 C3          2.6871   -2.0258    2.0368 C.ar      1 <0>         0.0000
      4 C4          3.7322   -2.5497    1.2757 C.ar      1 <0>         0.0000
      5 C5          3.9064   -2.1763   -0.0630 C.ar      1 <0>         0.0000
      6 C6          1.7884   -1.1484    1.4350 C.ar      1 <0>         0.0000
      7 C7          4.8289   -3.4855   -1.7983 C.3       1 <0>         0.0000
      8 N1          4.6397   -3.5027    1.9435 N.pl3     1 <0>         0.0000
      9 O1          5.1380   -4.3983    1.2621 O.3       1 <0>         0.0000
     10 O2          4.8133   -3.3449    3.1560 O.2       1 <0>         0.0000
     11 O3          5.0242   -2.6088   -0.7671 O.3       1 <0>         0.0000
     12 F1          3.9703   -4.4708   -1.4901 F         1 <0>         0.0000
     13 F2          6.0119   -4.0048   -2.1175 F         1 <0>         0.0000
     14 F3          4.3318   -2.8578   -2.8961 F         1 <0>         0.0000
     15 Cl1         0.4570   -0.5094    2.3675 Cl        1 <0>         0.0000
     16 H1          3.1734   -0.9562   -1.6651 H         1 <0>         0.0000
     17 H2          1.2492   -0.0688   -0.3533 H         1 <0>         0.0000
     18 H3          2.5894   -2.3133    3.0770 H         1 <0>         0.0000
@<TRIPOS>BOND
     1    1    2 ar
     2    1    5 ar
     3    1   16 1
     4    2    6 ar
     5    2   17 1
     6    3    4 ar
     7    3    6 ar
     8    3   18 1
     9    4    5 ar
    10    4    8 1
    11    5   11 1
    12    6   15 1
    13    7   11 1
    14    7   12 1
    15    7   13 1
    16    7   14 1
    17    8    9 1
    18    8   10 2
