@<TRIPOS>MOLECULE
*****
   51    54     0     0     0
SMALL
NO_CHARGES

@<TRIPOS>ATOM
      1 C1         -1.5572    1.8841   -3.0654 C.1       1 <0>         0.0000
      2 C2         -3.4518    0.6976   -4.0096 C.ar      1 <0>         0.0000
      3 C3         -2.2445    0.6515   -3.2907 C.ar      1 <0>         0.0000
      4 C4         -4.1252   -0.4607   -4.3740 C.ar      1 <0>         0.0000
      5 C5         -3.5104   -1.6833   -4.0130 C.ar      1 <0>         0.0000
      6 C6         -1.7466   -0.6321   -2.9042 C.ar      1 <0>         0.0000
      7 C7         -0.3210   -0.6970    0.9599 C.2       1 <0>         0.0000
      8 C8          1.6367    1.4751    0.9343 C.3       1 <0>         0.0000
      9 C9         -3.2679    1.0665    1.1971 C.3       1 <0>         0.0000
     10 C10        -2.4957    2.3156    1.5672 C.3       1 <0>         0.0000
     11 C11         1.9830    0.1394    0.2792 C.3       1 <0>         0.0000
     12 C12         0.9726   -1.9484   -0.8217 C.3       1 <0>         0.0000
     13 C13         0.7530    1.2427    2.1533 C.3       1 <0>         0.0000
     14 C14        -0.1914   -2.1869   -1.7886 C.3       1 <0>         0.0000
     15 C15         0.0039    0.2007   -1.3254 C.3       1 <0>         0.0000
     16 C16        -2.6006    1.1646    2.5481 C.3       1 <0>         0.0000
     17 C17         0.7070   -0.5741   -0.1771 C.3       1 <0>         0.0000
     18 C18        -5.4240   -0.4183   -5.1415 C.3       1 <0>         0.0000
     19 C19        -4.1270   -2.9997   -4.4146 C.3       1 <0>         0.0000
     20 C20        -1.4096    0.2848    2.9090 C.3       1 <0>         0.0000
     21 N1         -1.0167    2.9102   -2.9255 N.1       1 <0>         0.0000
     22 N2         -2.3789   -1.7542   -3.3105 N.ar      1 <0>         0.0000
     23 N3         -0.6335   -0.8262   -2.1439 N.pl3     1 <0>         0.0000
     24 N4         -0.3456    0.3009    1.9005 N.am      1 <0>         0.0000
     25 O1         -1.1563   -1.6063    0.9567 O.2       1 <0>         0.0000
     26 H1         -3.8436    1.6708   -4.2944 H         1 <0>         0.0000
     27 H2          2.5410    2.0041    1.2525 H         1 <0>         0.0000
     28 H3          1.1243    2.1230    0.2149 H         1 <0>         0.0000
     29 H4         -4.3519    1.1234    1.1579 H         1 <0>         0.0000
     30 H5         -2.8284    0.3932    0.4691 H         1 <0>         0.0000
     31 H6         -1.5508    2.4783    1.0586 H         1 <0>         0.0000
     32 H7         -3.0506    3.2245    1.7813 H         1 <0>         0.0000
     33 H8          2.6444    0.2870   -0.5819 H         1 <0>         0.0000
     34 H9          2.5233   -0.4967    0.9926 H         1 <0>         0.0000
     35 H10         1.0457   -2.7445   -0.0784 H         1 <0>         0.0000
     36 H11         1.9211   -1.8976   -1.3681 H         1 <0>         0.0000
     37 H12         1.3623    0.8549    2.9843 H         1 <0>         0.0000
     38 H13         0.3159    2.1865    2.4921 H         1 <0>         0.0000
     39 H14         0.1060   -2.7350   -2.6871 H         1 <0>         0.0000
     40 H15        -1.0067   -2.7279   -1.3070 H         1 <0>         0.0000
     41 H16        -0.7337    0.9107   -0.9482 H         1 <0>         0.0000
     42 H17         0.7445    0.7715   -1.8995 H         1 <0>         0.0000
     43 H18        -3.2687    1.3274    3.3919 H         1 <0>         0.0000
     44 H19        -5.3399   -0.9206   -6.1123 H         1 <0>         0.0000
     45 H20        -6.2343   -0.9137   -4.5939 H         1 <0>         0.0000
     46 H21        -5.7332    0.6139   -5.3279 H         1 <0>         0.0000
     47 H22        -4.2328   -3.0711   -5.5034 H         1 <0>         0.0000
     48 H23        -3.5039   -3.8223   -4.0619 H         1 <0>         0.0000
     49 H24        -5.1320   -3.1086   -3.9903 H         1 <0>         0.0000
     50 H25        -1.7400   -0.7475    3.0413 H         1 <0>         0.0000
     51 H26        -0.9738    0.6261    3.8550 H         1 <0>         0.0000
@<TRIPOS>BOND
     1    1    3 1
     2    1   21 3
     3    2    3 ar
     4    2    4 ar
     5    2   26 1
     6    3    6 ar
     7    4    5 ar
     8    4   18 1
     9    5   19 1
    10    5   22 ar
    11    6   22 ar
    12    6   23 1
    13    7   17 1
    14    7   24 am
    15    7   25 2
    16    8   11 1
    17    8   13 1
    18    8   27 1
    19    8   28 1
    20    9   10 1
    21    9   16 1
    22    9   29 1
    23    9   30 1
    24   10   16 1
    25   10   31 1
    26   10   32 1
    27   11   17 1
    28   11   33 1
    29   11   34 1
    30   12   14 1
    31   12   17 1
    32   12   35 1
    33   12   36 1
    34   13   24 1
    35   13   37 1
    36   13   38 1
    37   14   23 1
    38   14   39 1
    39   14   40 1
    40   15   17 1
    41   15   23 1
    42   15   41 1
    43   15   42 1
    44   16   20 1
    45   16   43 1
    46   18   44 1
    47   18   45 1
    48   18   46 1
    49   19   47 1
    50   19   48 1
    51   19   49 1
    52   20   24 1
    53   20   50 1
    54   20   51 1
