@<TRIPOS>MOLECULE
*****
   36    38     0     0     0
SMALL
NO_CHARGES

@<TRIPOS>ATOM
      1 C1          4.0687   -2.3855    2.6392 C.ar      1 <0>         0.0000
      2 C2          2.7745   -2.8815    2.4512 C.ar      1 <0>         0.0000
      3 C3          4.2712   -1.1295    3.2166 C.ar      1 <0>         0.0000
      4 C4          1.8519   -0.8713    3.4271 C.ar      1 <0>         0.0000
      5 C5          1.6573   -2.1303    2.8384 C.ar      1 <0>         0.0000
      6 C6          3.1476   -0.4020    3.6001 C.ar      1 <0>         0.0000
      7 C7         -0.6477   -1.5688    1.9826 C.2       1 <0>         0.0000
      8 C8          1.7909    1.5308   -1.7588 C.3       1 <0>         0.0000
      9 C9          0.8294    0.6426   -2.5311 C.3       1 <0>         0.0000
     10 C10         1.6216   -0.7291   -0.4659 C.3       1 <0>         0.0000
     11 C11        -0.2119    0.9900   -0.1704 C.3       1 <0>         0.0000
     12 C12         0.5738   -1.8220   -0.2033 C.3       1 <0>         0.0000
     13 C13        -1.2041   -0.1570    0.0696 C.3       1 <0>         0.0000
     14 C14         0.9533    0.5167   -1.0259 C.3       1 <0>         0.0000
     15 C15         0.2466   -2.6421    2.6108 C.3       1 <0>         0.0000
     16 N1         -0.5072   -1.3138    0.6438 N.am      1 <0>         0.0000
     17 O1         -1.4470   -0.9514    2.6934 O.2       1 <0>         0.0000
     18 F1          3.3270    0.8211    4.1637 F         1 <0>         0.0000
     19 H1          4.9260   -2.9782    2.3315 H         1 <0>         0.0000
     20 H2          2.6341   -3.8586    1.9951 H         1 <0>         0.0000
     21 H3          5.2637   -0.7177    3.3707 H         1 <0>         0.0000
     22 H4          1.0081   -0.2606    3.7359 H         1 <0>         0.0000
     23 H5          2.8557    1.3380   -1.8619 H         1 <0>         0.0000
     24 H6          1.5352    2.5814   -1.6482 H         1 <0>         0.0000
     25 H7         -0.0688    1.0998   -2.9383 H         1 <0>         0.0000
     26 H8          1.2520   -0.1430   -3.1524 H         1 <0>         0.0000
     27 H9          2.1315   -0.4914    0.4749 H         1 <0>         0.0000
     28 H10         2.3787   -1.1099   -1.1613 H         1 <0>         0.0000
     29 H11        -0.7285    1.8293   -0.6501 H         1 <0>         0.0000
     30 H12         0.1573    1.3450    0.8000 H         1 <0>         0.0000
     31 H13         0.1319   -2.1428   -1.1556 H         1 <0>         0.0000
     32 H14         1.0341   -2.6961    0.2520 H         1 <0>         0.0000
     33 H15        -1.9964    0.1344    0.7574 H         1 <0>         0.0000
     34 H16        -1.6558   -0.4678   -0.8809 H         1 <0>         0.0000
     35 H17         0.2685   -3.5585    2.0150 H         1 <0>         0.0000
     36 H18        -0.2247   -2.8809    3.5674 H         1 <0>         0.0000
@<TRIPOS>BOND
     1    1    2 ar
     2    1    3 ar
     3    1   19 1
     4    2    5 ar
     5    2   20 1
     6    3    6 ar
     7    3   21 1
     8    4    5 ar
     9    4    6 ar
    10    4   22 1
    11    5   15 1
    12    6   18 1
    13    7   15 1
    14    7   16 am
    15    7   17 2
    16    8    9 1
    17    8   14 1
    18    8   23 1
    19    8   24 1
    20    9   14 1
    21    9   25 1
    22    9   26 1
    23   10   12 1
    24   10   14 1
    25   10   27 1
    26   10   28 1
    27   11   13 1
    28   11   14 1
    29   11   29 1
    30   11   30 1
    31   12   16 1
    32   12   31 1
    33   12   32 1
    34   13   16 1
    35   13   33 1
    36   13   34 1
    37   15   35 1
    38   15   36 1
