@<TRIPOS>MOLECULE
*****
   51    54     0     0     0
SMALL
NO_CHARGES

@<TRIPOS>ATOM
      1 C1         -1.5649   -2.5671   -4.5944 C.1       1 <0>         0.0000
      2 C2         -3.9287   -2.0262   -4.4655 C.ar      1 <0>         0.0000
      3 C3         -2.6387   -1.9074   -3.9204 C.ar      1 <0>         0.0000
      4 C4         -5.0064   -1.3233   -3.9419 C.ar      1 <0>         0.0000
      5 C5         -4.7258   -0.4635   -2.8543 C.ar      1 <0>         0.0000
      6 C6         -2.4718   -1.0662   -2.7783 C.ar      1 <0>         0.0000
      7 C7          0.4233    0.2831    0.9158 C.2       1 <0>         0.0000
      8 C8          1.0038    2.3526   -1.0325 C.3       1 <0>         0.0000
      9 C9          2.9847    0.1219    3.4368 C.3       1 <0>         0.0000
     10 C10         2.7081    1.0132    4.6296 C.3       1 <0>         0.0000
     11 C11         1.1086    0.9023   -1.4925 C.3       1 <0>         0.0000
     12 C12         0.6156   -1.5112   -0.8647 C.3       1 <0>         0.0000
     13 C13         1.5407    2.4694    0.3862 C.3       1 <0>         0.0000
     14 C14        -0.1500   -1.8299   -2.1552 C.3       1 <0>         0.0000
     15 C15        -1.2112    0.0129   -0.9674 C.3       1 <0>         0.0000
     16 C16         2.4978    1.5392    3.2258 C.3       1 <0>         0.0000
     17 C17         0.2857   -0.0295   -0.5849 C.3       1 <0>         0.0000
     18 C18        -6.3952   -1.4496   -4.5191 C.3       1 <0>         0.0000
     19 C19        -5.8143    0.3849   -2.2459 C.3       1 <0>         0.0000
     20 C20         1.0844    1.7691    2.7292 C.3       1 <0>         0.0000
     21 N1         -0.7173   -3.0998   -5.1957 N.1       1 <0>         0.0000
     22 N2         -3.5155   -0.3524   -2.3026 N.ar      1 <0>         0.0000
     23 N3         -1.2939   -0.9042   -2.1124 N.pl3     1 <0>         0.0000
     24 N4          0.9192    1.5022    1.2943 N.am      1 <0>         0.0000
     25 O1          0.0332   -0.5459    1.7460 O.2       1 <0>         0.0000
     26 H1         -4.0648   -2.6732   -5.3284 H         1 <0>         0.0000
     27 H2          1.5795    3.0138   -1.6886 H         1 <0>         0.0000
     28 H3         -0.0375    2.6921   -1.0637 H         1 <0>         0.0000
     29 H4          4.0203   -0.1032    3.1982 H         1 <0>         0.0000
     30 H5          2.2801   -0.6766    3.2277 H         1 <0>         0.0000
     31 H6          1.8249    0.7982    5.2252 H         1 <0>         0.0000
     32 H7          3.5517    1.3934    5.1982 H         1 <0>         0.0000
     33 H8          0.7726    0.7961   -2.5291 H         1 <0>         0.0000
     34 H9          2.1622    0.5957   -1.4675 H         1 <0>         0.0000
     35 H10         0.2419   -2.1142   -0.0354 H         1 <0>         0.0000
     36 H11         1.6894   -1.6897   -0.9687 H         1 <0>         0.0000
     37 H12         2.6313    2.3271    0.3826 H         1 <0>         0.0000
     38 H13         1.3506    3.4706    0.7889 H         1 <0>         0.0000
     39 H14         0.4605   -1.6587   -3.0465 H         1 <0>         0.0000
     40 H15        -0.4892   -2.8694   -2.1827 H         1 <0>         0.0000
     41 H16        -1.8360   -0.3349   -0.1382 H         1 <0>         0.0000
     42 H17        -1.5567    1.0081   -1.2533 H         1 <0>         0.0000
     43 H18         3.2380    2.2551    2.8740 H         1 <0>         0.0000
     44 H19        -7.1129   -1.8092   -3.7726 H         1 <0>         0.0000
     45 H20        -6.7715   -0.4882   -4.8878 H         1 <0>         0.0000
     46 H21        -6.4072   -2.1534   -5.3558 H         1 <0>         0.0000
     47 H22        -6.6270   -0.2385   -1.8552 H         1 <0>         0.0000
     48 H23        -5.4053    0.9830   -1.4307 H         1 <0>         0.0000
     49 H24        -6.2585    1.0533   -2.9926 H         1 <0>         0.0000
     50 H25         0.7827    2.8076    2.9137 H         1 <0>         0.0000
     51 H26         0.3917    1.1150    3.2585 H         1 <0>         0.0000
@<TRIPOS>BOND
     1    1    3 1
     2    1   21 3
     3    2    3 ar
     4    2    4 ar
     5    2   26 1
     6    3    6 ar
     7    4    5 ar
     8    4   18 1
     9    5   19 1
    10    5   22 ar
    11    6   22 ar
    12    6   23 1
    13    7   17 1
    14    7   24 am
    15    7   25 2
    16    8   11 1
    17    8   13 1
    18    8   27 1
    19    8   28 1
    20    9   10 1
    21    9   16 1
    22    9   29 1
    23    9   30 1
    24   10   16 1
    25   10   31 1
    26   10   32 1
    27   11   17 1
    28   11   33 1
    29   11   34 1
    30   12   14 1
    31   12   17 1
    32   12   35 1
    33   12   36 1
    34   13   24 1
    35   13   37 1
    36   13   38 1
    37   14   23 1
    38   14   39 1
    39   14   40 1
    40   15   17 1
    41   15   23 1
    42   15   41 1
    43   15   42 1
    44   16   20 1
    45   16   43 1
    46   18   44 1
    47   18   45 1
    48   18   46 1
    49   19   47 1
    50   19   48 1
    51   19   49 1
    52   20   24 1
    53   20   50 1
    54   20   51 1
