@<TRIPOS>MOLECULE
*****
   51    54     0     0     0
SMALL
NO_CHARGES

@<TRIPOS>ATOM
      1 C1          1.6236    1.1391   -5.3229 C.1       1 <0>         0.0000
      2 C2          0.5609   -0.7022   -6.4964 C.ar      1 <0>         0.0000
      3 C3          0.8454   -0.0587   -5.2796 C.ar      1 <0>         0.0000
      4 C4         -0.2846   -1.8026   -6.5559 C.ar      1 <0>         0.0000
      5 C5         -0.8628   -2.2163   -5.3327 C.ar      1 <0>         0.0000
      6 C6          0.2660   -0.5952   -4.0891 C.ar      1 <0>         0.0000
      7 C7          0.3090   -0.6251    0.8064 C.2       1 <0>         0.0000
      8 C8         -0.3156    2.1978    0.8869 C.3       1 <0>         0.0000
      9 C9          2.3775   -1.1591    3.7505 C.3       1 <0>         0.0000
     10 C10         1.5929   -1.6353    4.9557 C.3       1 <0>         0.0000
     11 C11        -0.5687    1.4570   -0.4217 C.3       1 <0>         0.0000
     12 C12         1.7458    0.5020   -0.9263 C.3       1 <0>         0.0000
     13 C13        -0.7196    1.3085    2.0540 C.3       1 <0>         0.0000
     14 C14         1.6590    0.7063   -2.4445 C.3       1 <0>         0.0000
     15 C15        -0.1628   -0.7125   -1.6712 C.3       1 <0>         0.0000
     16 C16         1.0399   -0.5336    4.0765 C.3       1 <0>         0.0000
     17 C17         0.2888    0.1817   -0.5021 C.3       1 <0>         0.0000
     18 C18        -0.5915   -2.5011   -7.8581 C.3       1 <0>         0.0000
     19 C19        -1.8373   -3.3668   -5.2946 C.3       1 <0>         0.0000
     20 C20        -0.1525   -0.8290    3.1901 C.3       1 <0>         0.0000
     21 N1          2.2384    2.1282   -5.4096 N.1       1 <0>         0.0000
     22 N2         -0.5893   -1.6382   -4.1615 N.ar      1 <0>         0.0000
     23 N3          0.5009   -0.1099   -2.8378 N.pl3     1 <0>         0.0000
     24 N4         -0.1595   -0.0413    1.9503 N.am      1 <0>         0.0000
     25 O1          0.7734   -1.7716    0.8075 O.2       1 <0>         0.0000
     26 H1          1.0066   -0.3051   -7.4049 H         1 <0>         0.0000
     27 H2          0.7421    2.4693    0.9767 H         1 <0>         0.0000
     28 H3         -0.8919    3.1277    0.9315 H         1 <0>         0.0000
     29 H4          3.2723   -0.5689    3.9272 H         1 <0>         0.0000
     30 H5          2.4169   -1.8064    2.8806 H         1 <0>         0.0000
     31 H6          1.1213   -2.6126    4.8966 H         1 <0>         0.0000
     32 H7          1.9518   -1.3696    5.9457 H         1 <0>         0.0000
     33 H8         -1.6302    1.1840   -0.4778 H         1 <0>         0.0000
     34 H9         -0.3681    2.0991   -1.2850 H         1 <0>         0.0000
     35 H10         2.3745   -0.3607   -0.6934 H         1 <0>         0.0000
     36 H11         2.1599    1.3769   -0.4190 H         1 <0>         0.0000
     37 H12        -0.3787    1.7452    2.9988 H         1 <0>         0.0000
     38 H13        -1.8166    1.2402    2.1103 H         1 <0>         0.0000
     39 H14         1.5087    1.7576   -2.7065 H         1 <0>         0.0000
     40 H15         2.5679    0.3698   -2.9520 H         1 <0>         0.0000
     41 H16         0.1643   -1.7442   -1.5176 H         1 <0>         0.0000
     42 H17        -1.2460   -0.7143   -1.8095 H         1 <0>         0.0000
     43 H18         1.0669    0.4692    4.4993 H         1 <0>         0.0000
     44 H19        -0.2932   -3.5556   -7.8322 H         1 <0>         0.0000
     45 H20        -1.6626   -2.4770   -8.0901 H         1 <0>         0.0000
     46 H21        -0.0614   -2.0275   -8.6890 H         1 <0>         0.0000
     47 H22        -1.3762   -4.2863   -5.6735 H         1 <0>         0.0000
     48 H23        -2.1709   -3.5350   -4.2700 H         1 <0>         0.0000
     49 H24        -2.7100   -3.1659   -5.9269 H         1 <0>         0.0000
     50 H25        -1.0865   -0.6172    3.7255 H         1 <0>         0.0000
     51 H26        -0.1549   -1.8828    2.9094 H         1 <0>         0.0000
@<TRIPOS>BOND
     1    1    3 1
     2    1   21 3
     3    2    3 ar
     4    2    4 ar
     5    2   26 1
     6    3    6 ar
     7    4    5 ar
     8    4   18 1
     9    5   19 1
    10    5   22 ar
    11    6   22 ar
    12    6   23 1
    13    7   17 1
    14    7   24 am
    15    7   25 2
    16    8   11 1
    17    8   13 1
    18    8   27 1
    19    8   28 1
    20    9   10 1
    21    9   16 1
    22    9   29 1
    23    9   30 1
    24   10   16 1
    25   10   31 1
    26   10   32 1
    27   11   17 1
    28   11   33 1
    29   11   34 1
    30   12   14 1
    31   12   17 1
    32   12   35 1
    33   12   36 1
    34   13   24 1
    35   13   37 1
    36   13   38 1
    37   14   23 1
    38   14   39 1
    39   14   40 1
    40   15   17 1
    41   15   23 1
    42   15   41 1
    43   15   42 1
    44   16   20 1
    45   16   43 1
    46   18   44 1
    47   18   45 1
    48   18   46 1
    49   19   47 1
    50   19   48 1
    51   19   49 1
    52   20   24 1
    53   20   50 1
    54   20   51 1
