@<TRIPOS>MOLECULE
*****
   20    20     0     0     0
SMALL
NO_CHARGES

@<TRIPOS>ATOM
      1 C1          1.7444    1.4761    4.3210 C.2       1 <0>         0.0000
      2 C2          2.1791    1.1493    5.5961 C.2       1 <0>         0.0000
      3 C3          2.7965   -0.1313    5.4951 C.2       1 <0>         0.0000
      4 C4          2.9844    0.5935    1.1716 C.2       1 <0>         0.0000
      5 C5          3.3625   -1.0017    6.5758 C.3       1 <0>         0.0000
      6 C6          4.3538    0.8094    1.7646 C.3       1 <0>         0.0000
      7 C7          1.8171    0.2491    2.1149 C.3       1 <0>         0.0000
      8 N1          2.7024   -0.5666    4.2318 N.2       1 <0>         0.0000
      9 N2          2.0707    0.4167    3.5328 N.pl3     1 <0>         0.0000
     10 O1          2.7492    0.6610   -0.0222 O.2       1 <0>         0.0000
     11 I1          2.4177    2.5718    7.2290 I         1 <0>         0.0000
     12 H1          1.2311    2.3485    3.9404 H         1 <0>         0.0000
     13 H2          2.5703   -1.3214    7.2600 H         1 <0>         0.0000
     14 H3          3.8301   -1.8875    6.1426 H         1 <0>         0.0000
     15 H4          4.0973   -0.4541    7.1729 H         1 <0>         0.0000
     16 H5          4.6447   -0.0566    2.3678 H         1 <0>         0.0000
     17 H6          5.0749    0.9854    0.9657 H         1 <0>         0.0000
     18 H7          4.3365    1.6681    2.4451 H         1 <0>         0.0000
     19 H8          1.5537   -0.7973    1.9377 H         1 <0>         0.0000
     20 H9          0.9583    0.8589    1.8269 H         1 <0>         0.0000
@<TRIPOS>BOND
     1    1    2 2
     2    1    9 1
     3    1   12 1
     4    2    3 1
     5    2   11 1
     6    3    5 1
     7    3    8 2
     8    4    6 1
     9    4    7 1
    10    4   10 2
    11    5   13 1
    12    5   14 1
    13    5   15 1
    14    6   16 1
    15    6   17 1
    16    6   18 1
    17    7    9 1
    18    7   19 1
    19    7   20 1
    20    8    9 1
