@<TRIPOS>MOLECULE
*****
   51    54     0     0     0
SMALL
NO_CHARGES

@<TRIPOS>ATOM
      1 C1         -2.9836   -3.4999   -2.6372 C.1       1 <0>         0.0000
      2 C2         -5.2622   -0.6990   -3.4378 C.ar      1 <0>         0.0000
      3 C3         -3.5514   -2.1892   -2.6315 C.ar      1 <0>         0.0000
      4 C4         -4.7655   -1.9968   -3.3252 C.ar      1 <0>         0.0000
      5 C5         -4.5306    0.3660   -2.8942 C.ar      1 <0>         0.0000
      6 C6         -2.9049   -1.0556   -2.0395 C.ar      1 <0>         0.0000
      7 C7          0.5047    0.5218    1.0767 C.2       1 <0>         0.0000
      8 C8          1.9404    0.6662   -1.4405 C.3       1 <0>         0.0000
      9 C9          2.7655    0.5889    3.8784 C.3       1 <0>         0.0000
     10 C10         3.0687    1.9888    4.3706 C.3       1 <0>         0.0000
     11 C11         1.2565   -0.6519   -1.0931 C.3       1 <0>         0.0000
     12 C12        -0.3701   -1.7861    0.4978 C.3       1 <0>         0.0000
     13 C13         2.5485    1.2643   -0.1807 C.3       1 <0>         0.0000
     14 C14        -1.2688   -2.3466   -0.6117 C.3       1 <0>         0.0000
     15 C15        -1.1512    0.0817   -0.7543 C.3       1 <0>         0.0000
     16 C16         3.0671    1.6912    2.8864 C.3       1 <0>         0.0000
     17 C17         0.1304   -0.4394   -0.0656 C.3       1 <0>         0.0000
     18 C18        -5.4834   -3.1645   -3.9503 C.3       1 <0>         0.0000
     19 C19        -4.9934    1.7930   -3.0447 C.3       1 <0>         0.0000
     20 C20         1.9462    2.2404    2.0268 C.3       1 <0>         0.0000
     21 N1         -2.5549   -4.5844   -2.7040 N.1       1 <0>         0.0000
     22 N2         -3.3943    0.1895   -2.2136 N.ar      1 <0>         0.0000
     23 N3         -1.7687   -1.1394   -1.2921 N.pl3     1 <0>         0.0000
     24 N4          1.5776    1.3571    0.9125 N.am      1 <0>         0.0000
     25 O1         -0.2002    0.5616    2.0915 O.2       1 <0>         0.0000
     26 H1         -6.1929   -0.5111   -3.9639 H         1 <0>         0.0000
     27 H2          2.7316    0.5131   -2.1819 H         1 <0>         0.0000
     28 H3          1.2216    1.3699   -1.8750 H         1 <0>         0.0000
     29 H4          3.5181   -0.1793    4.0325 H         1 <0>         0.0000
     30 H5          1.7380    0.2443    3.9336 H         1 <0>         0.0000
     31 H6          2.2433    2.5727    4.7689 H         1 <0>         0.0000
     32 H7          4.0232    2.1715    4.8555 H         1 <0>         0.0000
     33 H8          0.8499   -1.1291   -1.9907 H         1 <0>         0.0000
     34 H9          2.0019   -1.3418   -0.6769 H         1 <0>         0.0000
     35 H10        -0.9487   -1.5920    1.4026 H         1 <0>         0.0000
     36 H11         0.4481   -2.4672    0.7471 H         1 <0>         0.0000
     37 H12         3.4097    0.6591    0.1383 H         1 <0>         0.0000
     38 H13         2.9237    2.2751   -0.3767 H         1 <0>         0.0000
     39 H14        -0.7130   -2.9856   -1.3035 H         1 <0>         0.0000
     40 H15        -2.0956   -2.9379   -0.2082 H         1 <0>         0.0000
     41 H16        -1.8121    0.5699   -0.0308 H         1 <0>         0.0000
     42 H17        -0.9529    0.7916   -1.5591 H         1 <0>         0.0000
     43 H18         4.0453    1.6567    2.4107 H         1 <0>         0.0000
     44 H19        -4.8621   -3.6382   -4.7176 H         1 <0>         0.0000
     45 H20        -5.7053   -3.9351   -3.2053 H         1 <0>         0.0000
     46 H21        -6.4203   -2.8446   -4.4117 H         1 <0>         0.0000
     47 H22        -5.0991    2.2592   -2.0602 H         1 <0>         0.0000
     48 H23        -4.2453    2.3718   -3.5967 H         1 <0>         0.0000
     49 H24        -5.9476    1.8580   -3.5730 H         1 <0>         0.0000
     50 H25         2.2347    3.2104    1.6035 H         1 <0>         0.0000
     51 H26         1.0502    2.3861    2.6301 H         1 <0>         0.0000
@<TRIPOS>BOND
     1    1    3 1
     2    1   21 3
     3    2    4 ar
     4    2    5 ar
     5    2   26 1
     6    3    4 ar
     7    3    6 ar
     8    4   18 1
     9    5   19 1
    10    5   22 ar
    11    6   22 ar
    12    6   23 1
    13    7   17 1
    14    7   24 am
    15    7   25 2
    16    8   11 1
    17    8   13 1
    18    8   27 1
    19    8   28 1
    20    9   10 1
    21    9   16 1
    22    9   29 1
    23    9   30 1
    24   10   16 1
    25   10   31 1
    26   10   32 1
    27   11   17 1
    28   11   33 1
    29   11   34 1
    30   12   14 1
    31   12   17 1
    32   12   35 1
    33   12   36 1
    34   13   24 1
    35   13   37 1
    36   13   38 1
    37   14   23 1
    38   14   39 1
    39   14   40 1
    40   15   17 1
    41   15   23 1
    42   15   41 1
    43   15   42 1
    44   16   20 1
    45   16   43 1
    46   18   44 1
    47   18   45 1
    48   18   46 1
    49   19   47 1
    50   19   48 1
    51   19   49 1
    52   20   24 1
    53   20   50 1
    54   20   51 1
