@<TRIPOS>MOLECULE
*****
   21    22     0     0     0
SMALL
NO_CHARGES

@<TRIPOS>ATOM
      1 C1          0.5619   -1.0006   -1.8303 C.ar      1 <0>         0.0000
      2 C2          0.1753   -0.9595   -0.4790 C.ar      1 <0>         0.0000
      3 C3          0.7927   -2.2222   -2.4676 C.ar      1 <0>         0.0000
      4 C4          0.0151   -2.1395    0.2515 C.ar      1 <0>         0.0000
      5 C5          0.6275   -3.3730   -1.7248 C.ar      1 <0>         0.0000
      6 C6          0.2490   -3.3328   -0.4005 C.ar      1 <0>         0.0000
      7 C7         -0.3843   -2.0977    1.6478 C.2       1 <0>         0.0000
      8 C8          0.4992   -5.3848   -0.9836 C.3       1 <0>         0.0000
      9 C9         -0.2738   -0.8014    3.6490 C.3       1 <0>         0.0000
     10 O1         -1.0417   -2.9808    2.2163 O.2       1 <0>         0.0000
     11 O2          0.8074   -4.6459   -2.1744 O.3       1 <0>         0.0000
     12 O3          0.1440   -4.5754    0.1467 O.3       1 <0>         0.0000
     13 O4          0.0568   -0.9584    2.2650 O.3       1 <0>         0.0000
     14 F1          1.5749   -6.1421   -0.6527 F         1 <0>         0.0000
     15 F2         -0.5280   -6.2294   -1.2512 F         1 <0>         0.0000
     16 H1          0.6825   -0.0727   -2.3828 H         1 <0>         0.0000
     17 H2          0.0014    0.0060   -0.0095 H         1 <0>         0.0000
     18 H3          1.0895   -2.2580   -3.5096 H         1 <0>         0.0000
     19 H4          0.1350    0.1428    4.0172 H         1 <0>         0.0000
     20 H5          0.1389   -1.6368    4.2202 H         1 <0>         0.0000
     21 H6         -1.3611   -0.7913    3.7558 H         1 <0>         0.0000
@<TRIPOS>BOND
     1    1    2 ar
     2    1    3 ar
     3    1   16 1
     4    2    4 ar
     5    2   17 1
     6    3    5 ar
     7    3   18 1
     8    4    6 ar
     9    4    7 1
    10    5    6 ar
    11    5   11 1
    12    6   12 1
    13    7   10 2
    14    7   13 1
    15    8   11 1
    16    8   12 1
    17    8   14 1
    18    8   15 1
    19    9   13 1
    20    9   19 1
    21    9   20 1
    22    9   21 1
