@<TRIPOS>MOLECULE
*****
   39    40     0     0     0
SMALL
NO_CHARGES

@<TRIPOS>ATOM
      1 C1          3.0823   -1.2854    1.9350 C.ar      1 <0>         0.0000
      2 C2          1.8577   -1.0066   -0.1279 C.ar      1 <0>         0.0000
      3 C3         -0.4409    4.1081    2.0678 C.ar      1 <0>         0.0000
      4 C4          0.6805    3.7678    4.1797 C.ar      1 <0>         0.0000
      5 C5          1.9784   -0.8381    2.6612 C.ar      1 <0>         0.0000
      6 C6          0.7443   -0.5563    0.5827 C.ar      1 <0>         0.0000
      7 C7         -0.7199    2.7442    1.9884 C.ar      1 <0>         0.0000
      8 C8          0.4108    2.3996    4.1155 C.ar      1 <0>         0.0000
      9 C9          3.0397   -1.3735    0.5344 C.ar      1 <0>         0.0000
     10 C10         0.2667    4.6381    3.1594 C.ar      1 <0>         0.0000
     11 C11         0.8208   -0.4691    1.9736 C.ar      1 <0>         0.0000
     12 C12        -0.2820    1.9009    3.0121 C.ar      1 <0>         0.0000
     13 C13         4.2604   -1.8006   -0.2445 C.3       1 <0>         0.0000
     14 C14         0.5365    6.1204    3.2660 C.3       1 <0>         0.0000
     15 C15         5.1384   -0.5927   -0.6166 C.3       1 <0>         0.0000
     16 C16        -0.6941    6.9333    3.7082 C.3       1 <0>         0.0000
     17 O1         -1.7882   -0.0525    2.0512 O.2       1 <0>         0.0000
     18 O2         -0.5147   -0.4214    4.2566 O.2       1 <0>         0.0000
     19 O3          6.3422   -0.9720   -1.2828 O.3       1 <0>         0.0000
     20 O4         -1.7432    6.9421    2.7384 O.3       1 <0>         0.0000
     21 S1         -0.5992    0.1359    2.8972 S.o2      1 <0>         0.0000
     22 H1          3.9858   -1.5823    2.4628 H         1 <0>         0.0000
     23 H2          1.8027   -1.0876   -1.2113 H         1 <0>         0.0000
     24 H3         -0.7913    4.7723    1.2838 H         1 <0>         0.0000
     25 H4          1.2184    4.1642    5.0380 H         1 <0>         0.0000
     26 H5          2.0003   -0.7944    3.7458 H         1 <0>         0.0000
     27 H6         -0.1799   -0.2963    0.0758 H         1 <0>         0.0000
     28 H7         -1.2860    2.3360    1.1568 H         1 <0>         0.0000
     29 H8          0.7162    1.7278    4.9117 H         1 <0>         0.0000
     30 H9          4.8678   -2.4998    0.3389 H         1 <0>         0.0000
     31 H10         3.9569   -2.3199   -1.1621 H         1 <0>         0.0000
     32 H11         1.3376    6.2981    3.9927 H         1 <0>         0.0000
     33 H12         0.8917    6.5141    2.3048 H         1 <0>         0.0000
     34 H13         4.5575    0.1200   -1.2199 H         1 <0>         0.0000
     35 H14         5.4562   -0.0718    0.2904 H         1 <0>         0.0000
     36 H15        -1.1299    6.4913    4.6078 H         1 <0>         0.0000
     37 H16        -0.3826    7.9588    3.9526 H         1 <0>         0.0000
     38 H17         6.1069   -1.3709   -2.1350 H         1 <0>         0.0000
     39 H18        -1.4557    7.4875    1.9898 H         1 <0>         0.0000
@<TRIPOS>BOND
     1    1    5 ar
     2    1    9 ar
     3    1   22 1
     4    2    6 ar
     5    2    9 ar
     6    2   23 1
     7    3    7 ar
     8    3   10 ar
     9    3   24 1
    10    4    8 ar
    11    4   10 ar
    12    4   25 1
    13    5   11 ar
    14    5   26 1
    15    6   11 ar
    16    6   27 1
    17    7   12 ar
    18    7   28 1
    19    8   12 ar
    20    8   29 1
    21    9   13 1
    22   10   14 1
    23   11   21 1
    24   12   21 1
    25   13   15 1
    26   13   30 1
    27   13   31 1
    28   14   16 1
    29   14   32 1
    30   14   33 1
    31   15   19 1
    32   15   34 1
    33   15   35 1
    34   16   20 1
    35   16   36 1
    36   16   37 1
    37   17   21 2
    38   18   21 2
    39   19   38 1
    40   20   39 1
