@<TRIPOS>MOLECULE
*****
   45    47     0     0     0
SMALL
NO_CHARGES

@<TRIPOS>ATOM
      1 C1         -1.3241   -6.1430    2.0840 C.ar      1 <0>         0.0000
      2 C2          1.0460   -6.3962    2.3524 C.ar      1 <0>         0.0000
      3 C3          0.3460   -8.9676    3.8144 C.ar      1 <0>         0.0000
      4 C4         -1.5339   -7.7219    4.6715 C.ar      1 <0>         0.0000
      5 C5         -1.1088   -5.1557    1.1189 C.ar      1 <0>         0.0000
      6 C6          1.2558   -5.4122    1.3890 C.ar      1 <0>         0.0000
      7 C7          0.1368   -9.9624    4.7712 C.ar      1 <0>         0.0000
      8 C8         -1.7595   -8.7056    5.6361 C.ar      1 <0>         0.0000
      9 C9         -0.2532   -6.7840    2.7234 C.ar      1 <0>         0.0000
     10 C10        -0.4816   -7.8329    3.7456 C.ar      1 <0>         0.0000
     11 C11         0.1852   -4.7603    0.7498 C.ar      1 <0>         0.0000
     12 C12        -0.9165   -9.8119    5.6676 C.ar      1 <0>         0.0000
     13 C13        -0.3728   -5.4744   -3.2717 C.2       1 <0>         0.0000
     14 C14         0.3739   -0.8026   -1.1672 C.3       1 <0>         0.0000
     15 C15         1.6906   -1.4705   -0.7566 C.3       1 <0>         0.0000
     16 C16        -0.5975   -1.8306   -1.7573 C.3       1 <0>         0.0000
     17 C17         1.4529   -2.6497    0.1988 C.3       1 <0>         0.0000
     18 C18        -0.8350   -3.0021   -0.7936 C.3       1 <0>         0.0000
     19 C19         0.4595   -3.7149   -0.3404 C.3       1 <0>         0.0000
     20 C20         1.1112   -4.4618   -1.5408 C.3       1 <0>         0.0000
     21 N1          0.2842   -5.5282   -2.0790 N.am      1 <0>         0.0000
     22 O1         -1.1622   -6.3162   -3.6810 O.2       1 <0>         0.0000
     23 F1         -1.1283  -10.7746    6.6022 F         1 <0>         0.0000
     24 H1         -2.3434   -6.4402    2.3160 H         1 <0>         0.0000
     25 H2          1.9032   -6.8512    2.8419 H         1 <0>         0.0000
     26 H3          1.1484   -9.0913    3.0926 H         1 <0>         0.0000
     27 H4         -2.1706   -6.8420    4.6567 H         1 <0>         0.0000
     28 H5         -1.9745   -4.7088    0.6440 H         1 <0>         0.0000
     29 H6          2.2800   -5.1471    1.1420 H         1 <0>         0.0000
     30 H7          0.7659  -10.8459    4.8208 H         1 <0>         0.0000
     31 H8         -2.5646   -8.6196    6.3594 H         1 <0>         0.0000
     32 H9         -0.1050   -4.5738   -3.8595 H         1 <0>         0.0000
     33 H10         0.5615    0.0043   -1.8849 H         1 <0>         0.0000
     34 H11        -0.0858   -0.3393   -0.2834 H         1 <0>         0.0000
     35 H12         2.2250   -1.8096   -1.6534 H         1 <0>         0.0000
     36 H13         2.3501   -0.7440   -0.2680 H         1 <0>         0.0000
     37 H14        -1.5598   -1.3585   -1.9849 H         1 <0>         0.0000
     38 H15        -0.2076   -2.1951   -2.7161 H         1 <0>         0.0000
     39 H16         2.4126   -3.1174    0.4424 H         1 <0>         0.0000
     40 H17         1.0499   -2.2679    1.1450 H         1 <0>         0.0000
     41 H18        -1.3431   -2.6132    0.0975 H         1 <0>         0.0000
     42 H19        -1.5190   -3.7212   -1.2552 H         1 <0>         0.0000
     43 H20         2.0751   -4.8755   -1.2250 H         1 <0>         0.0000
     44 H21         1.3218   -3.7685   -2.3573 H         1 <0>         0.0000
     45 H22         0.0369   -6.3026   -1.4701 H         1 <0>         0.0000
@<TRIPOS>BOND
     1    1    5 ar
     2    1    9 ar
     3    1   24 1
     4    2    6 ar
     5    2    9 ar
     6    2   25 1
     7    3    7 ar
     8    3   10 ar
     9    3   26 1
    10    4    8 ar
    11    4   10 ar
    12    4   27 1
    13    5   11 ar
    14    5   28 1
    15    6   11 ar
    16    6   29 1
    17    7   12 ar
    18    7   30 1
    19    8   12 ar
    20    8   31 1
    21    9   10 1
    22   11   19 1
    23   12   23 1
    24   13   21 am
    25   13   22 2
    26   13   32 1
    27   14   16 1
    28   14   15 1
    29   14   33 1
    30   14   34 1
    31   15   17 1
    32   15   35 1
    33   15   36 1
    34   16   18 1
    35   16   37 1
    36   16   38 1
    37   17   19 1
    38   17   39 1
    39   17   40 1
    40   18   19 1
    41   18   41 1
    42   18   42 1
    43   19   20 1
    44   20   21 1
    45   20   43 1
    46   20   44 1
    47   21   45 1
