@<TRIPOS>MOLECULE
*****
   48    50     0     0     0
SMALL
NO_CHARGES

@<TRIPOS>ATOM
      1 C1        -11.4150    6.1044   -5.3310 C.ar      1 <0>         0.0000
      2 C2        -12.0304    4.8241   -5.3493 C.ar      1 <0>         0.0000
      3 C3         -3.8680    0.1597   -0.1102 C.ar      1 <0>         0.0000
      4 C4        -10.1820    6.2740   -4.7375 C.ar      1 <0>         0.0000
      5 C5         -8.2460    5.2748   -3.5127 C.ar      1 <0>         0.0000
      6 C6        -11.4066    3.7361   -4.7755 C.ar      1 <0>         0.0000
      7 C7         -4.3301   -1.1604   -0.0603 C.ar      1 <0>         0.0000
      8 C8         -4.6146    1.1695   -0.7108 C.ar      1 <0>         0.0000
      9 C9         -7.6658    4.1572   -2.9553 C.ar      1 <0>         0.0000
     10 C10        -6.3603   -0.4448   -1.2046 C.ar      1 <0>         0.0000
     11 C11        -9.5148    5.1711   -4.1385 C.ar      1 <0>         0.0000
     12 C12       -10.1352    3.8809   -4.1562 C.ar      1 <0>         0.0000
     13 C13        -5.5851   -1.4527   -0.6043 C.ar      1 <0>         0.0000
     14 C14        -5.8644    0.8625   -1.2705 C.ar      1 <0>         0.0000
     15 C15        -8.3663    2.9235   -3.0260 C.ar      1 <0>         0.0000
     16 C16        -8.0849   -2.9167    5.7746 C.3       1 <0>         0.0000
     17 C17        -7.8034    1.6473   -2.4387 C.3       1 <0>         0.0000
     18 C18        -7.9597   -2.2947    4.3795 C.3       1 <0>         0.0000
     19 C19        -7.2071   -3.2073    3.4013 C.3       1 <0>         0.0000
     20 C20        -7.0894   -2.5669    2.0180 C.3       1 <0>         0.0000
     21 N1         -9.5479    2.7827   -3.5983 N.ar      1 <0>         0.0000
     22 N2         -6.0958   -2.7820   -0.5826 N.pl3     1 <0>         0.0000
     23 O1         -7.0689   -4.8002    0.5377 O.2       1 <0>         0.0000
     24 O2         -4.8517   -3.8552    1.3890 O.2       1 <0>         0.0000
     25 O3         -6.5351    1.9074   -1.8455 O.3       1 <0>         0.0000
     26 S1         -6.2058   -3.6636    0.8702 S.o2      1 <0>         0.0000
     27 H1        -11.9220    6.9499   -5.7882 H         1 <0>         0.0000
     28 H2        -13.0022    4.7055   -5.8212 H         1 <0>         0.0000
     29 H3         -2.8958    0.3966    0.3135 H         1 <0>         0.0000
     30 H4         -9.7062    7.2521   -4.7212 H         1 <0>         0.0000
     31 H5         -7.7413    6.2380   -3.4789 H         1 <0>         0.0000
     32 H6        -11.8613    2.7498   -4.7800 H         1 <0>         0.0000
     33 H7         -3.7364   -1.9502    0.3844 H         1 <0>         0.0000
     34 H8         -4.2515    2.1911   -0.7653 H         1 <0>         0.0000
     35 H9         -6.6981    4.1960   -2.4696 H         1 <0>         0.0000
     36 H10        -7.3351   -0.6969   -1.6083 H         1 <0>         0.0000
     37 H11        -7.0984   -3.1134    6.2088 H         1 <0>         0.0000
     38 H12        -8.6248   -2.2520    6.4568 H         1 <0>         0.0000
     39 H13        -8.6264   -3.8684    5.7352 H         1 <0>         0.0000
     40 H14        -8.5068    1.2607   -1.6901 H         1 <0>         0.0000
     41 H15        -7.7088    0.8984   -3.2353 H         1 <0>         0.0000
     42 H16        -8.9599   -2.0789    3.9824 H         1 <0>         0.0000
     43 H17        -7.4401   -1.3306    4.4517 H         1 <0>         0.0000
     44 H18        -7.7280   -4.1670    3.3152 H         1 <0>         0.0000
     45 H19        -6.2039   -3.4180    3.7856 H         1 <0>         0.0000
     46 H20        -8.0681   -2.3832    1.5653 H         1 <0>         0.0000
     47 H21        -6.5220   -1.6327    2.0461 H         1 <0>         0.0000
     48 H22        -6.9417   -2.9300   -1.1280 H         1 <0>         0.0000
@<TRIPOS>BOND
     1    1    2 ar
     2    1    4 ar
     3    1   27 1
     4    2    6 ar
     5    2   28 1
     6    3    7 ar
     7    3    8 ar
     8    3   29 1
     9    4   11 ar
    10    4   30 1
    11    5    9 ar
    12    5   11 ar
    13    5   31 1
    14    6   12 ar
    15    6   32 1
    16    7   13 ar
    17    7   33 1
    18    8   14 ar
    19    8   34 1
    20    9   15 ar
    21    9   35 1
    22   10   13 ar
    23   10   14 ar
    24   10   36 1
    25   11   12 ar
    26   12   21 ar
    27   13   22 1
    28   14   25 1
    29   15   17 1
    30   15   21 ar
    31   16   18 1
    32   16   37 1
    33   16   38 1
    34   16   39 1
    35   17   25 1
    36   17   40 1
    37   17   41 1
    38   18   19 1
    39   18   42 1
    40   18   43 1
    41   19   20 1
    42   19   44 1
    43   19   45 1
    44   20   26 1
    45   20   46 1
    46   20   47 1
    47   22   26 1
    48   22   48 1
    49   23   26 2
    50   24   26 2
