@<TRIPOS>MOLECULE
*****
   38    40     0     0     0
SMALL
NO_CHARGES

@<TRIPOS>ATOM
      1 C1         -0.0312   -0.5706   -1.4058 C.ar      1 <0>         0.0000
      2 C2         -1.8215    0.6987   -3.1594 C.ar      1 <0>         0.0000
      3 C3         -0.8561    0.4613   -0.9013 C.ar      1 <0>         0.0000
      4 C4         -0.0962   -0.9547   -2.7387 C.ar      1 <0>         0.0000
      5 C5         -0.9826   -0.3163   -3.6242 C.ar      1 <0>         0.0000
      6 C6         -1.7304    1.0740   -1.8185 C.ar      1 <0>         0.0000
      7 C7         -0.7388    0.1314    1.6058 C.2       1 <0>         0.0000
      8 C8         -0.7639    0.9044    0.5032 C.2       1 <0>         0.0000
      9 C9         -2.2017   -1.8067   -5.2602 C.2       1 <0>         0.0000
     10 C10         0.6591   -2.0481   -3.4662 C.3       1 <0>         0.0000
     11 C11        -0.8822   -1.3722    1.6302 C.3       1 <0>         0.0000
     12 C12        -0.5199    0.7242    2.9791 C.3       1 <0>         0.0000
     13 C13         0.4265   -1.7034   -4.9594 C.3       1 <0>         0.0000
     14 C14         0.3472   -2.0287    2.2883 C.3       1 <0>         0.0000
     15 C15         0.7142    0.0873    3.6519 C.3       1 <0>         0.0000
     16 C16         0.6055   -1.4450    3.6860 C.3       1 <0>         0.0000
     17 C17        -0.9026   -0.9138   -4.9991 C.3       1 <0>         0.0000
     18 O1         -2.0199   -3.0510   -5.2640 O.co2     1 <0>         0.0000
     19 O2         -3.2482   -1.1297   -5.4247 O.co2     1 <0>         0.0000
     20 Cl1        -2.7972    2.3808   -1.2520 Cl        1 <0>         0.0000
     21 H1          0.6852   -1.0365   -0.7327 H         1 <0>         0.0000
     22 H2         -2.5428    1.1602   -3.8252 H         1 <0>         0.0000
     23 H3         -0.7208    1.9835    0.6541 H         1 <0>         0.0000
     24 H4          1.7190   -2.0967   -3.1868 H         1 <0>         0.0000
     25 H5          0.2057   -3.0197   -3.2365 H         1 <0>         0.0000
     26 H6         -1.7677   -1.6216    2.2361 H         1 <0>         0.0000
     27 H7         -1.0566   -1.7767    0.6324 H         1 <0>         0.0000
     28 H8         -0.4029    1.8116    2.9182 H         1 <0>         0.0000
     29 H9         -1.4000    0.5266    3.6112 H         1 <0>         0.0000
     30 H10         1.2511   -1.0731   -5.3212 H         1 <0>         0.0000
     31 H11         0.3581   -2.5991   -5.5793 H         1 <0>         0.0000
     32 H12         0.2064   -3.1149    2.3511 H         1 <0>         0.0000
     33 H13         1.2266   -1.8573    1.6533 H         1 <0>         0.0000
     34 H14         1.6107    0.3748    3.0867 H         1 <0>         0.0000
     35 H15         0.8359    0.4812    4.6695 H         1 <0>         0.0000
     36 H16         1.5162   -1.8792    4.1182 H         1 <0>         0.0000
     37 H17        -0.2236   -1.7297    4.3500 H         1 <0>         0.0000
     38 H18        -0.9106   -0.1413   -5.7744 H         1 <0>         0.0000
@<TRIPOS>BOND
     1    1    3 ar
     2    1    4 ar
     3    1   21 1
     4    2    5 ar
     5    2    6 ar
     6    2   22 1
     7    3    6 ar
     8    3    8 1
     9    4    5 ar
    10    4   10 1
    11    5   17 1
    12    6   20 1
    13    7    8 2
    14    7   12 1
    15    7   11 1
    16    8   23 1
    17    9   17 1
    18    9   18 1
    19    9   19 2
    20   10   13 1
    21   10   24 1
    22   10   25 1
    23   11   14 1
    24   11   26 1
    25   11   27 1
    26   12   15 1
    27   12   28 1
    28   12   29 1
    29   13   17 1
    30   13   30 1
    31   13   31 1
    32   14   16 1
    33   14   32 1
    34   14   33 1
    35   15   16 1
    36   15   34 1
    37   15   35 1
    38   16   36 1
    39   16   37 1
    40   17   38 1
