@<TRIPOS>MOLECULE
*****
   26    26     0     0     0
SMALL
NO_CHARGES

@<TRIPOS>ATOM
      1 C1          1.9501   -1.1947   -0.1481 C.ar      1 <0>         0.0000
      2 C2          1.0372   -0.3853    0.5311 C.ar      1 <0>         0.0000
      3 C3          2.9465   -1.8732    0.5566 C.ar      1 <0>         0.0000
      4 C4          1.1221   -0.2584    1.9194 C.ar      1 <0>         0.0000
      5 C5          3.0499   -1.7656    1.9495 C.ar      1 <0>         0.0000
      6 C6          2.1216   -0.9428    2.6135 C.ar      1 <0>         0.0000
      7 C7          6.6778   -1.8238    3.9041 C.3       1 <0>         0.0000
      8 C8          4.1894   -2.4471    2.6462 C.3       1 <0>         0.0000
      9 N1          3.6331   -0.2395    4.7572 N.pl3     1 <0>         0.0000
     10 O1          1.0497    0.2048    4.7524 O.2       1 <0>         0.0000
     11 O2          1.9811   -2.1349    5.0165 O.2       1 <0>         0.0000
     12 O3          6.4357   -1.9664    1.2464 O.2       1 <0>         0.0000
     13 O4          5.3747   -0.0012    2.4666 O.2       1 <0>         0.0000
     14 S1          2.0617   -0.8018    4.4105 S.o2      1 <0>         0.0000
     15 S2          5.7255   -1.4341    2.4220 S.o2      1 <0>         0.0000
     16 H1          1.8922   -1.2952   -1.2283 H         1 <0>         0.0000
     17 H2          0.2610    0.1457   -0.0122 H         1 <0>         0.0000
     18 H3          3.6709   -2.4825    0.0231 H         1 <0>         0.0000
     19 H4          0.4219    0.3604    2.4705 H         1 <0>         0.0000
     20 H5          7.6159   -1.2721    3.8178 H         1 <0>         0.0000
     21 H6          6.1044   -1.4938    4.7710 H         1 <0>         0.0000
     22 H7          6.8699   -2.8980    3.9280 H         1 <0>         0.0000
     23 H8          4.4292   -3.4089    2.1895 H         1 <0>         0.0000
     24 H9          4.0282   -2.5707    3.7160 H         1 <0>         0.0000
     25 H10         3.9129    0.4960    4.1021 H         1 <0>         0.0000
     26 H11         3.6248    0.1257    5.7129 H         1 <0>         0.0000
@<TRIPOS>BOND
     1    1    2 ar
     2    1    3 ar
     3    1   16 1
     4    2    4 ar
     5    2   17 1
     6    3    5 ar
     7    3   18 1
     8    4    6 ar
     9    4   19 1
    10    5    6 ar
    11    5    8 1
    12    6   14 1
    13    7   15 1
    14    7   20 1
    15    7   21 1
    16    7   22 1
    17    8   15 1
    18    8   23 1
    19    8   24 1
    20    9   14 1
    21    9   25 1
    22    9   26 1
    23   10   14 2
    24   11   14 2
    25   12   15 2
    26   13   15 2
