@<TRIPOS>MOLECULE
*****
   51    53     0     0     0
SMALL
NO_CHARGES

@<TRIPOS>ATOM
      1 C1          0.4302   -2.9530    0.3165 C.ar      1 <0>         0.0000
      2 C2         -1.3997   -1.4642    0.7631 C.ar      1 <0>         0.0000
      3 C3         -0.4513   -4.0321    0.2365 C.ar      1 <0>         0.0000
      4 C4         -2.2982   -2.5316    0.6929 C.ar      1 <0>         0.0000
      5 C5         -0.0224   -1.6477    0.5636 C.ar      1 <0>         0.0000
      6 C6         -1.8197   -3.8139    0.4155 C.ar      1 <0>         0.0000
      7 C7         -4.6940    2.4419   -2.2507 C.3       1 <0>         0.0000
      8 C8         -2.1848    2.5187   -2.3818 C.3       1 <0>         0.0000
      9 C9         -3.3430    0.3320   -2.0368 C.3       1 <0>         0.0000
     10 C10         0.4415    0.7933    1.1959 C.3       1 <0>         0.0000
     11 C11         0.9799   -0.5036    0.5969 C.3       1 <0>         0.0000
     12 C12        -3.4416    3.2797   -1.9590 C.3       1 <0>         0.0000
     13 C13        -4.6241    1.0482   -1.6115 C.3       1 <0>         0.0000
     14 C14         1.4204    0.0285   -0.8042 C.3       1 <0>         0.0000
     15 C15         0.2950    1.0289   -1.1484 C.3       1 <0>         0.0000
     16 C16        -3.4770    4.6451   -2.6557 C.3       1 <0>         0.0000
     17 C17        -5.8397    0.1817   -1.9618 C.3       1 <0>         0.0000
     18 C18         1.7648   -0.9904   -1.8902 C.3       1 <0>         0.0000
     19 C19        -0.8392    0.4232   -1.9972 C.3       1 <0>         0.0000
     20 N1         -2.1215    1.1608   -1.7228 N.4       1 <0>         0.0000
     21 O1         -0.2736    1.4455    0.1091 O.3       1 <0>         0.0000
     22 Cl1        -2.9374   -5.1524    0.3133 Cl        1 <0>         0.0000
     23 H1          1.4936   -3.1389    0.1896 H         1 <0>         0.0000
     24 H2         -1.7939   -0.4800    0.9997 H         1 <0>         0.0000
     25 H3         -0.0810   -5.0343    0.0455 H         1 <0>         0.0000
     26 H4         -3.3581   -2.3761    0.8715 H         1 <0>         0.0000
     27 H5         -5.5808    2.9685   -1.8846 H         1 <0>         0.0000
     28 H6         -4.8180    2.3379   -3.3375 H         1 <0>         0.0000
     29 H7         -2.1688    2.3415   -3.4613 H         1 <0>         0.0000
     30 H8         -1.2794    3.0572   -2.0987 H         1 <0>         0.0000
     31 H9         -3.2204   -0.6213   -1.5180 H         1 <0>         0.0000
     32 H10        -3.3267    0.1460   -3.1152 H         1 <0>         0.0000
     33 H11        -0.2585    0.6667    2.0222 H         1 <0>         0.0000
     34 H12         1.2565    1.4478    1.5219 H         1 <0>         0.0000
     35 H13         1.8689   -0.8315    1.1438 H         1 <0>         0.0000
     36 H14        -3.3786    3.4495   -0.8746 H         1 <0>         0.0000
     37 H15        -4.5916    1.1687   -0.5187 H         1 <0>         0.0000
     38 H16         2.3170    0.6312   -0.6237 H         1 <0>         0.0000
     39 H17         0.7018    1.9131   -1.6506 H         1 <0>         0.0000
     40 H18        -3.5276    4.5320   -3.7441 H         1 <0>         0.0000
     41 H19        -2.5929    5.2440   -2.4150 H         1 <0>         0.0000
     42 H20        -4.3581    5.2093   -2.3384 H         1 <0>         0.0000
     43 H21        -5.9143    0.0261   -3.0434 H         1 <0>         0.0000
     44 H22        -6.7607    0.6690   -1.6308 H         1 <0>         0.0000
     45 H23        -5.7888   -0.7999   -1.4796 H         1 <0>         0.0000
     46 H24         0.9456   -1.6798   -2.1063 H         1 <0>         0.0000
     47 H25         2.6236   -1.5935   -1.5834 H         1 <0>         0.0000
     48 H26         2.0446   -0.4836   -2.8199 H         1 <0>         0.0000
     49 H27        -1.0190   -0.6139   -1.7213 H         1 <0>         0.0000
     50 H28        -0.6279    0.4772   -3.0667 H         1 <0>         0.0000
     51 H29        -2.0867    1.3271   -0.7040 H         1 <0>         0.0000
@<TRIPOS>BOND
     1    1    3 ar
     2    1    5 ar
     3    1   23 1
     4    2    4 ar
     5    2    5 ar
     6    2   24 1
     7    3    6 ar
     8    3   25 1
     9    4    6 ar
    10    4   26 1
    11    5   11 1
    12    6   22 1
    13    7   12 1
    14    7   13 1
    15    7   27 1
    16    7   28 1
    17    8   12 1
    18    8   20 1
    19    8   29 1
    20    8   30 1
    21    9   13 1
    22    9   20 1
    23    9   31 1
    24    9   32 1
    25   10   11 1
    26   10   21 1
    27   10   33 1
    28   10   34 1
    29   11   14 1
    30   11   35 1
    31   12   16 1
    32   12   36 1
    33   13   17 1
    34   13   37 1
    35   14   15 1
    36   14   18 1
    37   14   38 1
    38   15   19 1
    39   15   21 1
    40   15   39 1
    41   16   40 1
    42   16   41 1
    43   16   42 1
    44   17   43 1
    45   17   44 1
    46   17   45 1
    47   18   46 1
    48   18   47 1
    49   18   48 1
    50   19   20 1
    51   19   49 1
    52   19   50 1
    53   20   51 1
