@<TRIPOS>MOLECULE
*****
   45    47     0     0     0
SMALL
NO_CHARGES

@<TRIPOS>ATOM
      1 C1          0.6383   -5.4683   -2.7390 C.ar      1 <0>         0.0000
      2 C2          0.2982   -4.7065   -4.9867 C.ar      1 <0>         0.0000
      3 C3          3.0539   -5.8601   -5.5329 C.ar      1 <0>         0.0000
      4 C4          2.4077   -7.5980   -3.9896 C.ar      1 <0>         0.0000
      5 C5         -0.4350   -4.6831   -2.3134 C.ar      1 <0>         0.0000
      6 C6         -0.7719   -3.9238   -4.5554 C.ar      1 <0>         0.0000
      7 C7          4.1325   -6.6324   -5.9679 C.ar      1 <0>         0.0000
      8 C8          3.4807   -8.3854   -4.4109 C.ar      1 <0>         0.0000
      9 C9          1.0315   -5.4967   -4.0858 C.ar      1 <0>         0.0000
     10 C10         2.1735   -6.3253   -4.5399 C.ar      1 <0>         0.0000
     11 C11        -1.1658   -3.8833   -3.2068 C.ar      1 <0>         0.0000
     12 C12         4.3263   -7.8859   -5.3963 C.ar      1 <0>         0.0000
     13 C13        -4.4743   -5.5747   -1.4742 C.2       1 <0>         0.0000
     14 C14        -1.3919   -0.4964   -1.6111 C.3       1 <0>         0.0000
     15 C15        -1.3999   -0.7560   -3.1237 C.3       1 <0>         0.0000
     16 C16        -1.3175   -1.8113   -0.8230 C.3       1 <0>         0.0000
     17 C17        -2.5179   -1.7333   -3.5087 C.3       1 <0>         0.0000
     18 C18        -2.4245   -2.7846   -1.2531 C.3       1 <0>         0.0000
     19 C19        -2.4049   -3.0889   -2.7690 C.3       1 <0>         0.0000
     20 C20        -3.6557   -3.9297   -3.1456 C.3       1 <0>         0.0000
     21 N1         -3.6858   -5.2521   -2.5379 N.am      1 <0>         0.0000
     22 O1         -5.2829   -4.8279   -0.9350 O.2       1 <0>         0.0000
     23 F1          5.3730   -8.6450   -5.8125 F         1 <0>         0.0000
     24 H1          1.1960   -6.0430   -2.0041 H         1 <0>         0.0000
     25 H2          0.5491   -4.7243   -6.0441 H         1 <0>         0.0000
     26 H3          2.9122   -4.8688   -5.9536 H         1 <0>         0.0000
     27 H4          1.7278   -7.9922   -3.2398 H         1 <0>         0.0000
     28 H5         -0.6879   -4.6914   -1.2592 H         1 <0>         0.0000
     29 H6         -1.3112   -3.3430   -5.2971 H         1 <0>         0.0000
     30 H7          4.8207   -6.2728   -6.7267 H         1 <0>         0.0000
     31 H8          3.6596   -9.3727   -3.9962 H         1 <0>         0.0000
     32 H9         -4.3132   -6.6180   -1.1404 H         1 <0>         0.0000
     33 H10        -2.3107    0.0389   -1.3341 H         1 <0>         0.0000
     34 H11        -0.5536    0.1565   -1.3417 H         1 <0>         0.0000
     35 H12        -1.5308    0.1857   -3.6694 H         1 <0>         0.0000
     36 H13        -0.4310   -1.1677   -3.4321 H         1 <0>         0.0000
     37 H14        -0.3332   -2.2685   -0.9782 H         1 <0>         0.0000
     38 H15        -1.4053   -1.6130    0.2516 H         1 <0>         0.0000
     39 H16        -3.4860   -1.2890   -3.2421 H         1 <0>         0.0000
     40 H17        -2.5439   -1.8758   -4.5938 H         1 <0>         0.0000
     41 H18        -2.3806   -3.7057   -0.6658 H         1 <0>         0.0000
     42 H19        -3.4003   -2.3430   -1.0194 H         1 <0>         0.0000
     43 H20        -3.7024   -4.0429   -4.2345 H         1 <0>         0.0000
     44 H21        -4.5595   -3.4120   -2.8178 H         1 <0>         0.0000
     45 H22        -3.0013   -5.9334   -2.8424 H         1 <0>         0.0000
@<TRIPOS>BOND
     1    1    5 ar
     2    1    9 ar
     3    1   24 1
     4    2    6 ar
     5    2    9 ar
     6    2   25 1
     7    3    7 ar
     8    3   10 ar
     9    3   26 1
    10    4    8 ar
    11    4   10 ar
    12    4   27 1
    13    5   11 ar
    14    5   28 1
    15    6   11 ar
    16    6   29 1
    17    7   12 ar
    18    7   30 1
    19    8   12 ar
    20    8   31 1
    21    9   10 1
    22   11   19 1
    23   12   23 1
    24   13   21 am
    25   13   22 2
    26   13   32 1
    27   14   16 1
    28   14   15 1
    29   14   33 1
    30   14   34 1
    31   15   17 1
    32   15   35 1
    33   15   36 1
    34   16   18 1
    35   16   37 1
    36   16   38 1
    37   17   19 1
    38   17   39 1
    39   17   40 1
    40   18   19 1
    41   18   41 1
    42   18   42 1
    43   19   20 1
    44   20   21 1
    45   20   43 1
    46   20   44 1
    47   21   45 1
