@<TRIPOS>MOLECULE
*****
   38    41     0     0     0
SMALL
NO_CHARGES

@<TRIPOS>ATOM
      1 C1          2.9767   -5.9358   -0.0887 C.ar      1 <0>         0.0000
      2 C2          1.8788   -6.0129    0.8083 C.ar      1 <0>         0.0000
      3 C3          3.6375   -4.7398   -0.2761 C.ar      1 <0>         0.0000
      4 C4          1.4633   -4.8932    1.4982 C.ar      1 <0>         0.0000
      5 C5          3.8951   -2.3209    0.2671 C.ar      1 <0>         0.0000
      6 C6          3.4727   -1.2046    0.9549 C.ar      1 <0>         0.0000
      7 C7          1.7161   -2.4717    2.0147 C.ar      1 <0>         0.0000
      8 C8          3.2308   -3.5683    0.4197 C.ar      1 <0>         0.0000
      9 C9          2.1222   -3.6446    1.3229 C.ar      1 <0>         0.0000
     10 C10         2.3537   -1.2575    1.8354 C.ar      1 <0>         0.0000
     11 C11         0.4016    1.9834    2.6276 C.2       1 <0>         0.0000
     12 C12         0.3995    0.6373   -0.6769 C.3       1 <0>         0.0000
     13 C13        -0.9396    0.5213    0.0652 C.3       1 <0>         0.0000
     14 C14         1.3208    1.3174    0.3515 C.3       1 <0>         0.0000
     15 C15        -1.4174    0.5500    2.6229 C.3       1 <0>         0.0000
     16 C16        -0.5170    0.0790    1.4780 C.3       1 <0>         0.0000
     17 C17         0.8222    0.8112    1.7377 C.3       1 <0>         0.0000
     18 C18         1.8711   -0.0117    2.5404 C.3       1 <0>         0.0000
     19 O1          1.0672    2.9463    2.9320 O.2       1 <0>         0.0000
     20 O2         -0.8771    1.8164    3.0735 O.3       1 <0>         0.0000
     21 H1          3.2947   -6.8256   -0.6257 H         1 <0>         0.0000
     22 H2          1.3672   -6.9613    0.9495 H         1 <0>         0.0000
     23 H3          4.4809   -4.6794   -0.9604 H         1 <0>         0.0000
     24 H4          0.6232   -4.9534    2.1867 H         1 <0>         0.0000
     25 H5          4.7545   -2.2593   -0.3967 H         1 <0>         0.0000
     26 H6          4.0127   -0.2682    0.8416 H         1 <0>         0.0000
     27 H7          0.8847   -2.5471    2.7136 H         1 <0>         0.0000
     28 H8          0.7796   -0.3635   -0.9131 H         1 <0>         0.0000
     29 H9          0.3256    1.1962   -1.6146 H         1 <0>         0.0000
     30 H10        -1.4286    1.5033    0.1092 H         1 <0>         0.0000
     31 H11        -1.6415   -0.1776   -0.4001 H         1 <0>         0.0000
     32 H12         2.3734    1.0884    0.1827 H         1 <0>         0.0000
     33 H13         1.2234    2.4056    0.3007 H         1 <0>         0.0000
     34 H14        -2.4524    0.7275    2.3212 H         1 <0>         0.0000
     35 H15        -1.4094   -0.1380    3.4751 H         1 <0>         0.0000
     36 H16        -0.3953   -1.0059    1.4963 H         1 <0>         0.0000
     37 H17         1.4321   -0.2896    3.5058 H         1 <0>         0.0000
     38 H18         2.7117    0.6544    2.7591 H         1 <0>         0.0000
@<TRIPOS>BOND
     1    1    2 ar
     2    1    3 ar
     3    1   21 1
     4    2    4 ar
     5    2   22 1
     6    3    8 ar
     7    3   23 1
     8    4    9 ar
     9    4   24 1
    10    5    6 ar
    11    5    8 ar
    12    5   25 1
    13    6   10 ar
    14    6   26 1
    15    7    9 ar
    16    7   10 ar
    17    7   27 1
    18    8    9 ar
    19   10   18 1
    20   11   17 1
    21   11   19 2
    22   11   20 1
    23   12   13 1
    24   12   14 1
    25   12   28 1
    26   12   29 1
    27   13   16 1
    28   13   30 1
    29   13   31 1
    30   14   17 1
    31   14   32 1
    32   14   33 1
    33   15   16 1
    34   15   20 1
    35   15   34 1
    36   15   35 1
    37   16   17 1
    38   16   36 1
    39   17   18 1
    40   18   37 1
    41   18   38 1
