@<TRIPOS>MOLECULE
*****
   58    62     0     0     0
SMALL
NO_CHARGES

@<TRIPOS>ATOM
      1 C1          0.6755    5.9668    4.0312 C.ar      1 <0>         0.0000
      2 C2         -0.4931    6.3699    3.3509 C.ar      1 <0>         0.0000
      3 C3          0.9930    4.6128    4.1430 C.ar      1 <0>         0.0000
      4 C4         -4.4868    1.4169    4.4847 C.ar      1 <0>         0.0000
      5 C5         -2.8033   -0.2191    5.3124 C.ar      1 <0>         0.0000
      6 C6          1.0811    1.2476    3.8805 C.ar      1 <0>         0.0000
      7 C7         -1.3659    5.4438    2.7788 C.ar      1 <0>         0.0000
      8 C8         -5.6069    1.7059    3.7361 C.ar      1 <0>         0.0000
      9 C9         -2.2661   -1.4877    5.2938 C.ar      1 <0>         0.0000
     10 C10         0.8630   -0.0935    3.5567 C.ar      1 <0>         0.0000
     11 C11        -5.7729   -0.6262    3.0597 C.ar      1 <0>         0.0000
     12 C12        -4.0407   -2.2386    3.8089 C.ar      1 <0>         0.0000
     13 C13        -1.2014    0.4949    2.3709 C.ar      1 <0>         0.0000
     14 C14        -3.9660    0.1004    4.5627 C.ar      1 <0>         0.0000
     15 C15         0.1384    3.6643    3.5640 C.ar      1 <0>         0.0000
     16 C16         0.1799    2.2227    3.4534 C.ar      1 <0>         0.0000
     17 C17        -4.6151   -0.9362    3.8128 C.ar      1 <0>         0.0000
     18 C18        -1.0420    4.0852    2.8888 C.ar      1 <0>         0.0000
     19 C19        -0.9724    1.8368    2.7004 C.ar      1 <0>         0.0000
     20 C20        -6.2615    0.6715    3.0148 C.ar      1 <0>         0.0000
     21 C21        -2.8736   -2.4912    4.4972 C.ar      1 <0>         0.0000
     22 C22        -0.2720   -0.4570    2.8015 C.ar      1 <0>         0.0000
     23 C23        -4.1390    3.7752    1.9717 C.2       1 <0>         0.0000
     24 C24        -7.7777    2.2449    2.0236 C.3       1 <0>         0.0000
     25 C25        -2.8599    3.0133    1.4876 C.3       1 <0>         0.0000
     26 C26        -0.4391   -4.1400    2.8092 C.3       1 <0>         0.0000
     27 C27        -1.9421   -4.1885    3.0935 C.3       1 <0>         0.0000
     28 C28         0.1916   -2.7878    3.1191 C.3       1 <0>         0.0000
     29 N1         -1.7127    2.9701    2.3915 N.pl3     1 <0>         0.0000
     30 O1         -5.0662    3.7269    1.1159 O.co2     1 <0>         0.0000
     31 O2         -4.1239    4.3125    3.1056 O.co2     1 <0>         0.0000
     32 O3         -7.3711    0.8831    2.2454 O.3       1 <0>         0.0000
     33 O4         -2.2340   -3.7241    4.4223 O.3       1 <0>         0.0000
     34 O5         -0.5331   -1.7667    2.4391 O.3       1 <0>         0.0000
     35 H1          1.3278    6.7170    4.4730 H         1 <0>         0.0000
     36 H2         -0.7327    7.4291    3.2851 H         1 <0>         0.0000
     37 H3          1.8944    4.2971    4.6650 H         1 <0>         0.0000
     38 H4         -3.9667    2.2349    4.9750 H         1 <0>         0.0000
     39 H5         -2.3058    0.5723    5.8678 H         1 <0>         0.0000
     40 H6          1.9619    1.5261    4.4555 H         1 <0>         0.0000
     41 H7         -2.2913    5.7559    2.3119 H         1 <0>         0.0000
     42 H8         -5.9192    2.7383    3.6524 H         1 <0>         0.0000
     43 H9         -1.3518   -1.7221    5.8304 H         1 <0>         0.0000
     44 H10         1.5755   -0.8416    3.8827 H         1 <0>         0.0000
     45 H11        -6.2705   -1.3966    2.4758 H         1 <0>         0.0000
     46 H12        -4.5123   -3.0244    3.2236 H         1 <0>         0.0000
     47 H13        -2.0788    0.1648    1.8257 H         1 <0>         0.0000
     48 H14        -8.5853    2.1840    1.2898 H         1 <0>         0.0000
     49 H15        -6.9518    2.8529    1.6365 H         1 <0>         0.0000
     50 H16        -8.1690    2.6860    2.9502 H         1 <0>         0.0000
     51 H17        -3.1707    1.9875    1.2899 H         1 <0>         0.0000
     52 H18        -2.5502    3.4473    0.5288 H         1 <0>         0.0000
     53 H19         0.0838   -4.8928    3.4120 H         1 <0>         0.0000
     54 H20        -0.2842   -4.3996    1.7539 H         1 <0>         0.0000
     55 H21        -2.4704   -3.5741    2.3621 H         1 <0>         0.0000
     56 H22        -2.3076   -5.2190    3.0113 H         1 <0>         0.0000
     57 H23         1.2447   -2.7870    2.8025 H         1 <0>         0.0000
     58 H24         0.1591   -2.6084    4.1989 H         1 <0>         0.0000
@<TRIPOS>BOND
     1    1    2 ar
     2    1    3 ar
     3    1   35 1
     4    2    7 ar
     5    2   36 1
     6    3   15 ar
     7    3   37 1
     8    4    8 ar
     9    4   14 ar
    10    4   38 1
    11    5    9 ar
    12    5   14 ar
    13    5   39 1
    14    6   10 ar
    15    6   16 ar
    16    6   40 1
    17    7   18 ar
    18    7   41 1
    19    8   20 ar
    20    8   42 1
    21    9   21 ar
    22    9   43 1
    23   10   22 ar
    24   10   44 1
    25   11   17 ar
    26   11   20 ar
    27   11   45 1
    28   12   17 ar
    29   12   21 ar
    30   12   46 1
    31   13   19 ar
    32   13   22 ar
    33   13   47 1
    34   14   17 ar
    35   15   16 1
    36   15   18 ar
    37   16   19 ar
    38   18   29 1
    39   19   29 1
    40   20   32 1
    41   21   33 1
    42   22   34 1
    43   23   25 1
    44   23   30 1
    45   23   31 2
    46   24   32 1
    47   24   48 1
    48   24   49 1
    49   24   50 1
    50   25   29 1
    51   25   51 1
    52   25   52 1
    53   26   27 1
    54   26   28 1
    55   26   53 1
    56   26   54 1
    57   27   33 1
    58   27   55 1
    59   27   56 1
    60   28   34 1
    61   28   57 1
    62   28   58 1
