@<TRIPOS>MOLECULE
*****
   26    27     0     0     0
SMALL
NO_CHARGES

@<TRIPOS>ATOM
      1 C1          1.8850   -1.0365   -0.1124 C.ar      1 <0>         0.0000
      2 C2          6.6358    0.5164    3.6507 C.ar      1 <0>         0.0000
      3 C3          2.7653   -1.8509    0.6001 C.ar      1 <0>         0.0000
      4 C4          0.9621   -0.2433    0.5691 C.ar      1 <0>         0.0000
      5 C5          5.5014    1.2448    3.2927 C.ar      1 <0>         0.0000
      6 C6          6.5095   -0.6316    4.4328 C.ar      1 <0>         0.0000
      7 C7          2.7227   -1.8719    1.9941 C.ar      1 <0>         0.0000
      8 C8          0.9194   -0.2643    1.9631 C.ar      1 <0>         0.0000
      9 C9          4.2406    0.8251    3.7168 C.ar      1 <0>         0.0000
     10 C10         5.2487   -1.0513    4.8570 C.ar      1 <0>         0.0000
     11 C11         1.7997   -1.0786    2.6757 C.ar      1 <0>         0.0000
     12 C12         4.1142   -0.3229    4.4990 C.ar      1 <0>         0.0000
     13 C13         1.7557   -1.1009    4.1294 C.2       1 <0>         0.0000
     14 C14         2.7820   -0.7658    4.9467 C.2       1 <0>         0.0000
     15 H1          1.9174   -1.0212   -1.1979 H         1 <0>         0.0000
     16 H2          7.6176    0.8438    3.3215 H         1 <0>         0.0000
     17 H3          3.4833   -2.4694    0.0695 H         1 <0>         0.0000
     18 H4          0.2757    0.3900    0.0144 H         1 <0>         0.0000
     19 H5          5.5997    2.1393    2.6847 H         1 <0>         0.0000
     20 H6          7.3929   -1.1983    4.7127 H         1 <0>         0.0000
     21 H7          3.4155   -2.5119    2.5354 H         1 <0>         0.0000
     22 H8          0.1943    0.3597    2.4803 H         1 <0>         0.0000
     23 H9          3.3657    1.4036    3.4295 H         1 <0>         0.0000
     24 H10         5.1662   -1.9483    5.4662 H         1 <0>         0.0000
     25 H11         0.7965   -1.3854    4.5757 H         1 <0>         0.0000
     26 H12         2.6615   -0.8459    6.0243 H         1 <0>         0.0000
@<TRIPOS>BOND
     1    1    4 ar
     2    1    3 ar
     3    1   15 1
     4    2    6 ar
     5    2    5 ar
     6    2   16 1
     7    3    7 ar
     8    3   17 1
     9    4    8 ar
    10    4   18 1
    11    5    9 ar
    12    5   19 1
    13    6   10 ar
    14    6   20 1
    15    7   11 ar
    16    7   21 1
    17    8   11 ar
    18    8   22 1
    19    9   12 ar
    20    9   23 1
    21   10   12 ar
    22   10   24 1
    23   11   13 1
    24   12   14 1
    25   13   14 2
    26   13   25 1
    27   14   26 1
