@<TRIPOS>MOLECULE
*****
   15    14     0     0     0
SMALL
NO_CHARGES

@<TRIPOS>ATOM
      1 C1          2.5800   -0.8060   -0.5790 C.2       1 <0>         0.0000
      2 C2          1.3600   -0.8810   -0.0230 C.2       1 <0>         0.0000
      3 C3          2.9950   -1.5250   -1.8450 C.3       1 <0>         0.0000
      4 C4         -0.7430   -0.6770   -1.2180 C.3       1 <0>         0.0000
      5 C5          0.2010   -1.6970   -0.5650 C.3       1 <0>         0.0000
      6 H1          3.3400   -0.2150   -0.1300 H         1 <0>         0.0000
      7 H2          1.1400   -0.3400    0.8630 H         1 <0>         0.0000
      8 H3          3.9540   -1.1260   -2.1450 H         1 <0>         0.0000
      9 H4          2.2450   -1.3290   -2.5990 H         1 <0>         0.0000
     10 H5          3.0660   -2.5780   -1.6110 H         1 <0>         0.0000
     11 H6         -0.2040   -0.1650   -2.0160 H         1 <0>         0.0000
     12 H7         -1.0700    0.0360   -0.4610 H         1 <0>         0.0000
     13 H8         -1.5990   -1.2160   -1.6250 H         1 <0>         0.0000
     14 H9         -0.3050   -2.1800    0.2600 H         1 <0>         0.0000
     15 H10         0.5340   -2.4070   -1.3090 H         1 <0>         0.0000
@<TRIPOS>BOND
     1    1    2 2
     2    1    3 1
     3    1    6 1
     4    2    5 1
     5    2    7 1
     6    3    8 1
     7    3    9 1
     8    3   10 1
     9    4    5 1
    10    4   11 1
    11    4   12 1
    12    4   13 1
    13    5   14 1
    14    5   15 1
