@<TRIPOS>MOLECULE
*****
   25    26     0     0     0
SMALL
NO_CHARGES

@<TRIPOS>ATOM
      1 C1         -0.7942   -6.3720   -4.2572 C.ar      1 <0>         0.0000
      2 C2         -1.5027   -5.7282   -3.2399 C.ar      1 <0>         0.0000
      3 C3          0.6035   -6.4160   -4.2355 C.ar      1 <0>         0.0000
      4 C4         -0.8175   -5.1086   -2.1893 C.ar      1 <0>         0.0000
      5 C5          1.2745   -5.8030   -3.1830 C.ar      1 <0>         0.0000
      6 C6          0.5799   -5.1516   -2.1660 C.ar      1 <0>         0.0000
      7 C7         -0.8765   -1.2968   -3.6517 C.3       1 <0>         0.0000
      8 C8         -1.4775   -0.1894   -2.7914 C.3       1 <0>         0.0000
      9 C9         -1.1694   -2.0996   -1.5269 C.3       1 <0>         0.0000
     10 C10        -2.1470   -3.2720   -1.4478 C.3       1 <0>         0.0000
     11 O1         -0.3206   -2.1727   -2.6655 O.3       1 <0>         0.0000
     12 O2         -1.9397   -0.9024   -1.6355 O.3       1 <0>         0.0000
     13 O3         -1.4743   -4.5020   -1.1447 O.3       1 <0>         0.0000
     14 F1          2.6248   -5.8207   -3.1367 F         1 <0>         0.0000
     15 F2          1.2585   -4.5482   -1.1749 F         1 <0>         0.0000
     16 H1         -1.3325   -6.8560   -5.0666 H         1 <0>         0.0000
     17 H2         -2.5887   -5.7103   -3.2416 H         1 <0>         0.0000
     18 H3          1.1767   -6.9157   -5.0099 H         1 <0>         0.0000
     19 H4         -1.6439   -1.8111   -4.2461 H         1 <0>         0.0000
     20 H5         -0.0669   -0.9679   -4.3060 H         1 <0>         0.0000
     21 H6         -0.7199    0.5500   -2.5027 H         1 <0>         0.0000
     22 H7         -2.3321    0.3153   -3.2481 H         1 <0>         0.0000
     23 H8         -0.5227   -2.0788   -0.6423 H         1 <0>         0.0000
     24 H9         -2.7108   -3.3492   -2.3846 H         1 <0>         0.0000
     25 H10        -2.8454   -3.1006   -0.6258 H         1 <0>         0.0000
@<TRIPOS>BOND
     1    1    2 ar
     2    1    3 ar
     3    1   16 1
     4    2    4 ar
     5    2   17 1
     6    3    5 ar
     7    3   18 1
     8    4    6 ar
     9    4   13 1
    10    5    6 ar
    11    5   14 1
    12    6   15 1
    13    7    8 1
    14    7   11 1
    15    7   19 1
    16    7   20 1
    17    8   12 1
    18    8   21 1
    19    8   22 1
    20    9   10 1
    21    9   12 1
    22    9   11 1
    23    9   23 1
    24   10   13 1
    25   10   24 1
    26   10   25 1
