@<TRIPOS>MOLECULE
*****
   66    68     0     0     0
SMALL
NO_CHARGES

@<TRIPOS>ATOM
      1 C1         -4.0562    1.0202   -5.6176 C.1       1 <0>         0.0000
      2 C2         -3.6064   -1.3484   -6.0038 C.ar      1 <0>         0.0000
      3 C3         -3.5503   -2.6725   -5.5719 C.ar      1 <0>         0.0000
      4 C4         -4.3937   -1.9854   -3.4019 C.ar      1 <0>         0.0000
      5 C5         -4.0404   -0.3332   -5.1360 C.ar      1 <0>         0.0000
      6 C6         -4.4405   -0.6618   -3.8242 C.ar      1 <0>         0.0000
      7 C7         -3.9332   -2.9776   -4.2684 C.ar      1 <0>         0.0000
      8 C8         -4.9501   -5.0499   -3.3114 C.2       1 <0>         0.0000
      9 C9         -2.6442   -4.9457   -3.4341 C.2       1 <0>         0.0000
     10 C10        -0.8603   -0.3569    0.1673 C.2       1 <0>         0.0000
     11 C11        -2.0320   -2.4898   -0.4832 C.3       1 <0>         0.0000
     12 C12         0.3738   -2.2396   -0.7889 C.3       1 <0>         0.0000
     13 C13        -1.8414   -3.9537   -0.0841 C.3       1 <0>         0.0000
     14 C14         0.5971   -3.6908   -0.3901 C.3       1 <0>         0.0000
     15 C15        -4.3962   -6.3495   -2.7252 C.3       1 <0>         0.0000
     16 C16        -4.7614   -7.5075   -3.6727 C.3       1 <0>         0.0000
     17 C17        -4.9533   -6.5785   -1.3176 C.3       1 <0>         0.0000
     18 C18        -3.4802    2.3145    1.2608 C.3       1 <0>         0.0000
     19 C19        -2.2040    0.2454    0.5465 C.3       1 <0>         0.0000
     20 C20        -2.1073    1.7274    0.9195 C.3       1 <0>         0.0000
     21 C21        -1.5227   -6.9398   -0.8212 C.3       1 <0>         0.0000
     22 C22        -1.9430   -7.0529   -2.3039 C.3       1 <0>         0.0000
     23 C23        -0.3782   -5.9861   -0.4678 C.3       1 <0>         0.0000
     24 C24        -4.8829    0.4144   -2.8534 C.3       1 <0>         0.0000
     25 N1         -4.0495    2.1057   -6.0369 N.1       1 <0>         0.0000
     26 N2         -3.8421   -4.3171   -3.7695 N.am      1 <0>         0.0000
     27 N3         -2.9355   -6.0723   -2.7449 N.pl3     1 <0>         0.0000
     28 N4         -0.8414   -1.7196   -0.1737 N.am      1 <0>         0.0000
     29 N5         -0.6156   -4.5246   -0.7405 N.4       1 <0>         0.0000
     30 O1         -6.1065   -4.7069   -3.3748 O.2       1 <0>         0.0000
     31 O2          0.1819    0.2813    0.1642 O.2       1 <0>         0.0000
     32 F1         -5.2260   -0.1224   -1.6524 F         1 <0>         0.0000
     33 F2         -3.8800    1.2931   -2.6152 F         1 <0>         0.0000
     34 F3         -5.9401    1.1055   -3.3066 F         1 <0>         0.0000
     35 S1         -1.1246   -4.3509   -3.8333 S.2       1 <0>         0.0000
     36 H1         -3.3082   -1.0892   -7.0141 H         1 <0>         0.0000
     37 H2         -3.2011   -3.4550   -6.2372 H         1 <0>         0.0000
     38 H3         -4.7208   -2.2457   -2.4026 H         1 <0>         0.0000
     39 H4         -2.2751   -2.4315   -1.5543 H         1 <0>         0.0000
     40 H5         -2.8894   -2.1105    0.0714 H         1 <0>         0.0000
     41 H6          1.2157   -1.6362   -0.4485 H         1 <0>         0.0000
     42 H7          0.3245   -2.1538   -1.8840 H         1 <0>         0.0000
     43 H8         -1.7091   -4.0544    0.9964 H         1 <0>         0.0000
     44 H9         -2.6980   -4.5463   -0.4026 H         1 <0>         0.0000
     45 H10         1.4479   -4.1160   -0.9264 H         1 <0>         0.0000
     46 H11         0.7574   -3.7902    0.6862 H         1 <0>         0.0000
     47 H12        -4.4206   -8.4649   -3.2700 H         1 <0>         0.0000
     48 H13        -4.3206   -7.3625   -4.6627 H         1 <0>         0.0000
     49 H14        -5.8481   -7.5507   -3.7766 H         1 <0>         0.0000
     50 H15        -4.5868   -7.5201   -0.9000 H         1 <0>         0.0000
     51 H16        -6.0428   -6.6315   -1.3750 H         1 <0>         0.0000
     52 H17        -4.6938   -5.7598   -0.6400 H         1 <0>         0.0000
     53 H18        -3.9379    1.7990    2.1132 H         1 <0>         0.0000
     54 H19        -4.1698    2.2372    0.4127 H         1 <0>         0.0000
     55 H20        -3.3947    3.3732    1.5223 H         1 <0>         0.0000
     56 H21        -2.6328   -0.3253    1.3818 H         1 <0>         0.0000
     57 H22        -2.8993    0.1252   -0.2936 H         1 <0>         0.0000
     58 H23        -1.6579    2.2745    0.0858 H         1 <0>         0.0000
     59 H24        -1.4211    1.8426    1.7638 H         1 <0>         0.0000
     60 H25        -1.1546   -7.9269   -0.5200 H         1 <0>         0.0000
     61 H26        -2.3958   -6.7531   -0.1926 H         1 <0>         0.0000
     62 H27        -1.0754   -6.9798   -2.9639 H         1 <0>         0.0000
     63 H28        -2.3815   -8.0408   -2.4564 H         1 <0>         0.0000
     64 H29        -0.1432   -6.0751    0.5961 H         1 <0>         0.0000
     65 H30         0.5185   -6.2471   -1.0354 H         1 <0>         0.0000
     66 H31        -0.7409   -4.4345   -1.7836 H         1 <0>         0.0000
@<TRIPOS>BOND
     1    1    5 1
     2    1   25 3
     3    2    3 ar
     4    2    5 ar
     5    2   36 1
     6    3    7 ar
     7    3   37 1
     8    4    6 ar
     9    4    7 ar
    10    4   38 1
    11    5    6 ar
    12    6   24 1
    13    7   26 1
    14    8   15 1
    15    8   26 am
    16    8   30 2
    17    9   26 1
    18    9   27 1
    19    9   35 2
    20   10   19 1
    21   10   28 am
    22   10   31 2
    23   11   13 1
    24   11   28 1
    25   11   39 1
    26   11   40 1
    27   12   14 1
    28   12   28 1
    29   12   41 1
    30   12   42 1
    31   13   29 1
    32   13   43 1
    33   13   44 1
    34   14   29 1
    35   14   45 1
    36   14   46 1
    37   15   16 1
    38   15   17 1
    39   15   27 1
    40   16   47 1
    41   16   48 1
    42   16   49 1
    43   17   50 1
    44   17   51 1
    45   17   52 1
    46   18   20 1
    47   18   53 1
    48   18   54 1
    49   18   55 1
    50   19   20 1
    51   19   56 1
    52   19   57 1
    53   20   58 1
    54   20   59 1
    55   21   22 1
    56   21   23 1
    57   21   60 1
    58   21   61 1
    59   22   27 1
    60   22   62 1
    61   22   63 1
    62   23   29 1
    63   23   64 1
    64   23   65 1
    65   24   32 1
    66   24   33 1
    67   24   34 1
    68   29   66 1
