@<TRIPOS>MOLECULE
*****
   67    69     0     0     0
SMALL
NO_CHARGES

@<TRIPOS>ATOM
      1 C1         -3.2943   -0.5127   -0.6301 C.1       1 <0>         0.0000
      2 C2          1.0027   -6.5832   -3.6465 C.ar      1 <0>         0.0000
      3 C3          0.5595   -6.0977   -2.4176 C.ar      1 <0>         0.0000
      4 C4          0.2740   -1.4286   -0.1852 C.ar      1 <0>         0.0000
      5 C5         -2.0896   -1.2928   -0.5970 C.ar      1 <0>         0.0000
      6 C6         -1.1869   -4.8534   -3.5636 C.ar      1 <0>         0.0000
      7 C7         -2.1364   -2.6546   -0.9604 C.ar      1 <0>         0.0000
      8 C8          0.3817   -6.2188   -4.8484 C.ar      1 <0>         0.0000
      9 C9         -0.8910   -0.6633   -0.1957 C.ar      1 <0>         0.0000
     10 C10        -0.5268   -5.2283   -2.3794 C.ar      1 <0>         0.0000
     11 C11        -0.9513   -3.4005   -0.9044 C.ar      1 <0>         0.0000
     12 C12         0.2574   -2.7808   -0.5381 C.ar      1 <0>         0.0000
     13 C13        -0.7173   -5.3516   -4.7948 C.ar      1 <0>         0.0000
     14 C14        -2.3287   -3.9038   -3.4582 C.2       1 <0>         0.0000
     15 C15        -3.4316   -3.2629   -1.4657 C.3       1 <0>         0.0000
     16 C16        -0.8762    0.7920    0.1997 C.3       1 <0>         0.0000
     17 C17         5.9488   -4.7049   -1.9022 C.3       1 <0>         0.0000
     18 C18         4.2215   -4.5139   -3.7310 C.3       1 <0>         0.0000
     19 C19         3.0206   -3.6777   -7.4263 C.3       1 <0>         0.0000
     20 C20         0.8111   -4.4247   -8.3804 C.3       1 <0>         0.0000
     21 C21        -2.6291   -5.5585   -6.1949 C.3       1 <0>         0.0000
     22 C22         3.5689   -4.1423   -1.2937 C.3       1 <0>         0.0000
     23 C23         2.0679   -5.8984   -6.7201 C.3       1 <0>         0.0000
     24 C24         2.3474   -3.2753   -1.5484 C.3       1 <0>         0.0000
     25 C25         0.9036   -6.7446   -6.1700 C.3       1 <0>         0.0000
     26 C26         4.6693   -3.9894   -2.3585 C.3       1 <0>         0.0000
     27 C27         1.7283   -4.4602   -7.1490 C.3       1 <0>         0.0000
     28 N1         -4.2633    0.1359   -0.6389 N.1       1 <0>         0.0000
     29 O1         -2.5010   -2.9033   -4.1174 O.2       1 <0>         0.0000
     30 O2         -0.9421   -4.7692   -1.1333 O.3       1 <0>         0.0000
     31 O3         -3.1563   -4.2909   -2.4315 O.3       1 <0>         0.0000
     32 O4          1.3465   -8.0941   -5.9320 O.3       1 <0>         0.0000
     33 O5         -1.3304   -4.9895   -5.9719 O.3       1 <0>         0.0000
     34 O6          1.3984   -3.5334   -0.4858 O.3       1 <0>         0.0000
     35 H1          1.8377   -7.2748   -3.6868 H         1 <0>         0.0000
     36 H2          1.0463   -6.3637   -1.4857 H         1 <0>         0.0000
     37 H3          1.2174   -0.9850    0.1206 H         1 <0>         0.0000
     38 H4         -3.9755   -3.7689   -0.6648 H         1 <0>         0.0000
     39 H5         -4.0723   -2.4903   -1.8966 H         1 <0>         0.0000
     40 H6         -1.2274    1.4267   -0.6204 H         1 <0>         0.0000
     41 H7         -1.5401    0.9761    1.0507 H         1 <0>         0.0000
     42 H8          0.1314    1.1117    0.4745 H         1 <0>         0.0000
     43 H9          5.7691   -5.7794   -1.7748 H         1 <0>         0.0000
     44 H10         6.3083   -4.3108   -0.9454 H         1 <0>         0.0000
     45 H11         6.7512   -4.5869   -2.6385 H         1 <0>         0.0000
     46 H12         3.9662   -5.5782   -3.6715 H         1 <0>         0.0000
     47 H13         5.0217   -4.4036   -4.4707 H         1 <0>         0.0000
     48 H14         3.3429   -3.9869   -4.1135 H         1 <0>         0.0000
     49 H15         3.5864   -4.1355   -8.2475 H         1 <0>         0.0000
     50 H16         2.7980   -2.6442   -7.7137 H         1 <0>         0.0000
     51 H17         3.6721   -3.6503   -6.5471 H         1 <0>         0.0000
     52 H18         1.2937   -4.9136   -9.2366 H         1 <0>         0.0000
     53 H19        -0.1435   -4.9188   -8.1888 H         1 <0>         0.0000
     54 H20         0.5917   -3.3909   -8.6679 H         1 <0>         0.0000
     55 H21        -2.9505   -5.2006   -7.1742 H         1 <0>         0.0000
     56 H22        -3.3503   -5.2294   -5.4405 H         1 <0>         0.0000
     57 H23        -2.5726   -6.6537   -6.1958 H         1 <0>         0.0000
     58 H24         3.9691   -3.8835   -0.3065 H         1 <0>         0.0000
     59 H25         3.2527   -5.1908   -1.2414 H         1 <0>         0.0000
     60 H26         2.4858   -6.4263   -7.5918 H         1 <0>         0.0000
     61 H27         2.8537   -5.8851   -5.9564 H         1 <0>         0.0000
     62 H28         2.6181   -2.2112   -1.5511 H         1 <0>         0.0000
     63 H29         1.8686   -3.5114   -2.5045 H         1 <0>         0.0000
     64 H30         0.0830   -6.7524   -6.8948 H         1 <0>         0.0000
     65 H31         4.9008   -2.9192   -2.4601 H         1 <0>         0.0000
     66 H32         1.2043   -3.9673   -6.3209 H         1 <0>         0.0000
     67 H33         1.7784   -8.4056   -6.7429 H         1 <0>         0.0000
@<TRIPOS>BOND
     1    1    5 1
     2    1   28 3
     3    2    3 ar
     4    2    8 ar
     5    2   35 1
     6    3   10 ar
     7    3   36 1
     8    4    9 ar
     9    4   12 ar
    10    4   37 1
    11    5    7 ar
    12    5    9 ar
    13    6   10 ar
    14    6   13 ar
    15    6   14 1
    16    7   11 ar
    17    7   15 1
    18    8   13 ar
    19    8   25 1
    20    9   16 1
    21   10   30 1
    22   11   12 ar
    23   11   30 1
    24   12   34 1
    25   13   33 1
    26   14   29 2
    27   14   31 1
    28   15   31 1
    29   15   38 1
    30   15   39 1
    31   16   40 1
    32   16   41 1
    33   16   42 1
    34   17   26 1
    35   17   43 1
    36   17   44 1
    37   17   45 1
    38   18   26 1
    39   18   46 1
    40   18   47 1
    41   18   48 1
    42   19   27 1
    43   19   49 1
    44   19   50 1
    45   19   51 1
    46   20   27 1
    47   20   52 1
    48   20   53 1
    49   20   54 1
    50   21   33 1
    51   21   55 1
    52   21   56 1
    53   21   57 1
    54   22   24 1
    55   22   26 1
    56   22   58 1
    57   22   59 1
    58   23   25 1
    59   23   27 1
    60   23   60 1
    61   23   61 1
    62   24   34 1
    63   24   62 1
    64   24   63 1
    65   25   32 1
    66   25   64 1
    67   26   65 1
    68   27   66 1
    69   32   67 1
