@<TRIPOS>MOLECULE
*****
   26    27     0     0     0
SMALL
NO_CHARGES

@<TRIPOS>ATOM
      1 C1         -1.9323    0.8440   -0.4461 C.ar      1 <0>         0.0000
      2 C2         -0.5469    0.8976   -0.2738 C.ar      1 <0>         0.0000
      3 C3         -4.0902    4.2376   -1.4936 C.ar      1 <0>         0.0000
      4 C4         -0.5812    3.2417   -0.8037 C.ar      1 <0>         0.0000
      5 C5         -4.6804    3.0058   -1.2959 C.ar      1 <0>         0.0000
      6 C6         -1.9747    3.1875   -0.9770 C.ar      1 <0>         0.0000
      7 C7         -2.6683    1.9725   -0.7968 C.ar      1 <0>         0.0000
      8 C8         -2.7151    4.3237   -1.3301 C.ar      1 <0>         0.0000
      9 C9          0.1298    2.0977   -0.4527 C.ar      1 <0>         0.0000
     10 C10        -2.8343    6.7522   -1.8904 C.3       1 <0>         0.0000
     11 C11        -1.8797    7.9193   -2.0642 C.3       1 <0>         0.0000
     12 N1         -4.0027    1.8858   -0.9548 N.ar      1 <0>         0.0000
     13 N2         -2.0997    5.5822   -1.5304 N.pl3     1 <0>         0.0000
     14 O1         -1.2156    8.1736   -0.8328 O.3       1 <0>         0.0000
     15 Cl1         1.8355    2.1676   -0.2415 Cl        1 <0>         0.0000
     16 H1         -2.4390   -0.1083   -0.3002 H         1 <0>         0.0000
     17 H2         -0.0128   -0.0087    0.0003 H         1 <0>         0.0000
     18 H3         -4.6897    5.0993   -1.7665 H         1 <0>         0.0000
     19 H4         -0.0387    4.1750   -0.9408 H         1 <0>         0.0000
     20 H5         -5.7518    2.8778   -1.4097 H         1 <0>         0.0000
     21 H6         -3.5672    6.9529   -1.1025 H         1 <0>         0.0000
     22 H7         -3.3620    6.5490   -2.8272 H         1 <0>         0.0000
     23 H8         -2.4359    8.8205   -2.3403 H         1 <0>         0.0000
     24 H9         -1.1284    7.7137   -2.8335 H         1 <0>         0.0000
     25 H10        -1.1076    5.6220   -1.4088 H         1 <0>         0.0000
     26 H11        -0.6181    8.9229   -0.9870 H         1 <0>         0.0000
@<TRIPOS>BOND
     1    1    2 ar
     2    1    7 ar
     3    1   16 1
     4    2    9 ar
     5    2   17 1
     6    3    5 ar
     7    3    8 ar
     8    3   18 1
     9    4    6 ar
    10    4    9 ar
    11    4   19 1
    12    5   12 ar
    13    5   20 1
    14    6    7 ar
    15    6    8 ar
    16    7   12 ar
    17    8   13 1
    18    9   15 1
    19   10   11 1
    20   10   13 1
    21   10   21 1
    22   10   22 1
    23   11   14 1
    24   11   23 1
    25   11   24 1
    26   13   25 1
    27   14   26 1
