@<TRIPOS>MOLECULE
*****
   39    42     0     0     0
SMALL
NO_CHARGES

@<TRIPOS>ATOM
      1 C1          3.6649   -2.8202    6.3217 C.ar      1 <0>         0.0000
      2 C2         -3.5770    1.4532   -2.6422 C.ar      1 <0>         0.0000
      3 C3          3.5441   -3.3329    5.0459 C.ar      1 <0>         0.0000
      4 C4         -2.4724    0.6159   -2.4754 C.ar      1 <0>         0.0000
      5 C5          3.4818   -1.4369    6.5632 C.ar      1 <0>         0.0000
      6 C6          2.7896   -2.0218    1.6236 C.ar      1 <0>         0.0000
      7 C7         -3.6837    2.5847   -1.8300 C.ar      1 <0>         0.0000
      8 C8         -1.7252    2.0902   -0.7509 C.ar      1 <0>         0.0000
      9 C9          3.2347   -2.4683    3.9655 C.ar      1 <0>         0.0000
     10 C10        -1.5083    0.9257   -1.5086 C.ar      1 <0>         0.0000
     11 C11         3.0435   -1.0672    4.1776 C.ar      1 <0>         0.0000
     12 C12         3.0926   -2.9234    2.6210 C.ar      1 <0>         0.0000
     13 C13         3.1805   -0.6004    5.5145 C.ar      1 <0>         0.0000
     14 C14         2.6240   -0.6524    1.9601 C.ar      1 <0>         0.0000
     15 C15         0.0589   -0.4420    0.1290 C.3       1 <0>         0.0000
     16 C16         1.1191    0.6790   -1.3079 C.3       1 <0>         0.0000
     17 C17        -0.3050    0.0525   -1.2998 C.3       1 <0>         0.0000
     18 C18         2.3219    0.3529    0.8664 C.3       1 <0>         0.0000
     19 N1         -2.7762    2.9059   -0.8960 N.ar      1 <0>         0.0000
     20 N2          2.7377   -0.1809    3.1887 N.ar      1 <0>         0.0000
     21 N3          1.4917   -0.2119   -0.1840 N.3       1 <0>         0.0000
     22 O1          3.2697   -4.2583    2.3999 O.3       1 <0>         0.0000
     23 F1          3.0071    0.7163    5.7523 F         1 <0>         0.0000
     24 H1          3.9026   -3.4757    7.1546 H         1 <0>         0.0000
     25 H2         -4.3405    1.2371   -3.3844 H         1 <0>         0.0000
     26 H3          3.6831   -4.3910    4.8532 H         1 <0>         0.0000
     27 H4         -2.3575   -0.2737   -3.0916 H         1 <0>         0.0000
     28 H5          3.5744   -1.0215    7.5622 H         1 <0>         0.0000
     29 H6          2.6629   -2.3246    0.5871 H         1 <0>         0.0000
     30 H7         -4.5306    3.2617   -1.9309 H         1 <0>         0.0000
     31 H8         -1.0105    2.3822    0.0180 H         1 <0>         0.0000
     32 H9         -0.3210    0.2308    0.9124 H         1 <0>         0.0000
     33 H10        -0.1988   -1.4737    0.3893 H         1 <0>         0.0000
     34 H11         1.7221    0.5579   -2.2141 H         1 <0>         0.0000
     35 H12         1.0982    1.7428   -1.0266 H         1 <0>         0.0000
     36 H13        -0.3409   -0.7956   -1.9882 H         1 <0>         0.0000
     37 H14         1.8727    1.2416    1.3401 H         1 <0>         0.0000
     38 H15         3.2694    0.6731    0.4123 H         1 <0>         0.0000
     39 H16         3.1529   -4.4393    1.4527 H         1 <0>         0.0000
@<TRIPOS>BOND
     1    1    3 ar
     2    1    5 ar
     3    1   24 1
     4    2    4 ar
     5    2    7 ar
     6    2   25 1
     7    3    9 ar
     8    3   26 1
     9    4   10 ar
    10    4   27 1
    11    5   13 ar
    12    5   28 1
    13    6   12 ar
    14    6   14 ar
    15    6   29 1
    16    7   19 ar
    17    7   30 1
    18    8   10 ar
    19    8   19 ar
    20    8   31 1
    21    9   11 ar
    22    9   12 ar
    23   10   17 1
    24   11   13 ar
    25   11   20 ar
    26   12   22 1
    27   13   23 1
    28   14   18 1
    29   14   20 ar
    30   15   17 1
    31   15   21 1
    32   15   32 1
    33   15   33 1
    34   16   17 1
    35   16   21 1
    36   16   34 1
    37   16   35 1
    38   17   36 1
    39   18   21 1
    40   18   37 1
    41   18   38 1
    42   22   39 1
