@<TRIPOS>MOLECULE
*****
   34    37     0     0     0
SMALL
NO_CHARGES

@<TRIPOS>ATOM
      1 C1          3.8451   -5.0008    3.3828 C.ar      1 <0>         0.0000
      2 C2          4.1781   -3.6707    3.6729 C.ar      1 <0>         0.0000
      3 C3          3.0011   -5.3130    2.3097 C.ar      1 <0>         0.0000
      4 C4          3.6727   -2.6206    2.8937 C.ar      1 <0>         0.0000
      5 C5         -1.1233   -8.4976   -2.8583 C.ar      1 <0>         0.0000
      6 C6         -2.3891   -6.6188   -4.5672 C.ar      1 <0>         0.0000
      7 C7          2.4966   -4.2680    1.5317 C.ar      1 <0>         0.0000
      8 C8         -0.9146   -7.1030   -2.6519 C.ar      1 <0>         0.0000
      9 C9         -1.9341   -8.9029   -3.8907 C.ar      1 <0>         0.0000
     10 C10        -2.5563   -7.9794   -4.7309 C.ar      1 <0>         0.0000
     11 C11         2.8401   -2.9537    1.8378 C.ar      1 <0>         0.0000
     12 C12        -1.5573   -6.1864   -3.5168 C.ar      1 <0>         0.0000
     13 C13         1.5899   -4.2859    0.3435 C.2       1 <0>         0.0000
     14 C14        -0.0336   -6.7682   -1.5351 C.2       1 <0>         0.0000
     15 C15        -3.0287  -10.0355   -5.4842 C.3       1 <0>         0.0000
     16 N1          1.2676   -3.1521   -0.2038 N.2       1 <0>         0.0000
     17 N2          0.3113   -5.5783   -1.1891 N.2       1 <0>         0.0000
     18 N3          1.1423   -5.4888   -0.1128 N.pl3     1 <0>         0.0000
     19 O1          1.0019   -1.0672    1.3085 O.2       1 <0>         0.0000
     20 O2          3.0089   -1.2372   -0.2221 O.2       1 <0>         0.0000
     21 O3         -2.2974  -10.1807   -4.2548 O.3       1 <0>         0.0000
     22 O4         -3.3270   -8.6356   -5.6549 O.3       1 <0>         0.0000
     23 S1          2.0156   -1.8799    0.6373 S.o2      1 <0>         0.0000
     24 Cl1        -1.3706   -4.4622   -3.3496 Cl        1 <0>         0.0000
     25 H1          4.2464   -5.8008    3.9983 H         1 <0>         0.0000
     26 H2          4.8345   -3.4517    4.5103 H         1 <0>         0.0000
     27 H3          2.7585   -6.3535    2.1076 H         1 <0>         0.0000
     28 H4          3.9228   -1.5859    3.1081 H         1 <0>         0.0000
     29 H5         -0.6482   -9.2249   -2.2068 H         1 <0>         0.0000
     30 H6         -2.8769   -5.9020   -5.2180 H         1 <0>         0.0000
     31 H7          0.3401   -7.6406   -0.9773 H         1 <0>         0.0000
     32 H8         -2.4067  -10.3745   -6.3221 H         1 <0>         0.0000
     33 H9         -3.9632  -10.5966   -5.4189 H         1 <0>         0.0000
     34 H10         1.4464   -6.3357    0.3656 H         1 <0>         0.0000
@<TRIPOS>BOND
     1    1    2 ar
     2    1    3 ar
     3    1   25 1
     4    2    4 ar
     5    2   26 1
     6    3    7 ar
     7    3   27 1
     8    4   11 ar
     9    4   28 1
    10    5    8 ar
    11    5    9 ar
    12    5   29 1
    13    6   10 ar
    14    6   12 ar
    15    6   30 1
    16    7   11 ar
    17    7   13 1
    18    8   12 ar
    19    8   14 1
    20    9   10 ar
    21    9   21 1
    22   10   22 1
    23   11   23 1
    24   12   24 1
    25   13   16 2
    26   13   18 1
    27   14   17 2
    28   14   31 1
    29   15   21 1
    30   15   22 1
    31   15   32 1
    32   15   33 1
    33   16   23 1
    34   17   18 1
    35   18   34 1
    36   19   23 2
    37   20   23 2
