@<TRIPOS>MOLECULE
*****
   43    45     0     0     0
SMALL
NO_CHARGES

@<TRIPOS>ATOM
      1 C1         -7.1658    0.1805    1.4660 C.ar      1 <0>         0.0000
      2 C2         -7.1299    1.3739    2.2156 C.ar      1 <0>         0.0000
      3 C3         -6.3008   -0.0050    0.3874 C.ar      1 <0>         0.0000
      4 C4         -6.2280    2.3993    1.9202 C.ar      1 <0>         0.0000
      5 C5         -5.4077    1.0238    0.0784 C.ar      1 <0>         0.0000
      6 C6         -5.3626    2.1934    0.8432 C.ar      1 <0>         0.0000
      7 C7         -4.3831    1.1354   -0.9774 C.2       1 <0>         0.0000
      8 C8         -1.3646    1.8393   -1.3064 C.2       1 <0>         0.0000
      9 C9          1.0305    0.5273    0.7650 C.3       1 <0>         0.0000
     10 C10        -0.0626    0.0903   -0.2275 C.3       1 <0>         0.0000
     11 C11        -1.8987    1.1244    1.0485 C.3       1 <0>         0.0000
     12 C12        -0.9966    0.7492    2.2438 C.3       1 <0>         0.0000
     13 C13         0.4566    1.2383    2.0226 C.3       1 <0>         0.0000
     14 C14        -1.6412    1.2354    3.5453 C.3       1 <0>         0.0000
     15 C15         0.5517    2.7592    1.8817 C.3       1 <0>         0.0000
     16 C16        -2.5549    2.8226   -1.3467 C.3       1 <0>         0.0000
     17 N1         -4.3283    3.0409    0.3810 N.pl3     1 <0>         0.0000
     18 N2         -3.8349    2.4041   -0.7978 N.am      1 <0>         0.0000
     19 N3         -1.1745    1.0391   -0.2211 N.am      1 <0>         0.0000
     20 O1         -4.0102    0.3270   -1.8218 O.2       1 <0>         0.0000
     21 O2         -0.5981    1.8586   -2.2710 O.2       1 <0>         0.0000
     22 O3          1.2654    0.9340    3.1758 O.3       1 <0>         0.0000
     23 H1         -7.8761   -0.5963    1.7343 H         1 <0>         0.0000
     24 H2         -7.8143    1.4972    3.0508 H         1 <0>         0.0000
     25 H3         -6.3133   -0.9130   -0.2087 H         1 <0>         0.0000
     26 H4         -6.1945    3.3086    2.5142 H         1 <0>         0.0000
     27 H5          1.5904   -0.3611    1.0813 H         1 <0>         0.0000
     28 H6          1.7465    1.1888    0.2691 H         1 <0>         0.0000
     29 H7          0.3243    0.0292   -1.2430 H         1 <0>         0.0000
     30 H8         -0.4607   -0.8950    0.0417 H         1 <0>         0.0000
     31 H9         -2.7698    0.4571    1.0435 H         1 <0>         0.0000
     32 H10        -2.2662    2.1406    1.1930 H         1 <0>         0.0000
     33 H11        -0.9430   -0.3482    2.2979 H         1 <0>         0.0000
     34 H12        -1.7744    2.3218    3.5471 H         1 <0>         0.0000
     35 H13        -1.0267    0.9698    4.4087 H         1 <0>         0.0000
     36 H14        -2.6311    0.7828    3.6719 H         1 <0>         0.0000
     37 H15         0.1419    3.2636    2.7602 H         1 <0>         0.0000
     38 H16         0.0252    3.1070    0.9900 H         1 <0>         0.0000
     39 H17         1.6032    3.0442    1.7883 H         1 <0>         0.0000
     40 H18        -2.6710    3.0565   -2.4061 H         1 <0>         0.0000
     41 H19        -2.2619    3.7418   -0.8317 H         1 <0>         0.0000
     42 H20        -4.6633    3.9775    0.1489 H         1 <0>         0.0000
     43 H21         1.2886   -0.0313    3.2784 H         1 <0>         0.0000
@<TRIPOS>BOND
     1    1    2 ar
     2    1    3 ar
     3    1   23 1
     4    2    4 ar
     5    2   24 1
     6    3    5 ar
     7    3   25 1
     8    4    6 ar
     9    4   26 1
    10    5    6 ar
    11    5    7 1
    12    6   17 1
    13    7   18 am
    14    7   20 2
    15    8   16 1
    16    8   19 am
    17    8   21 2
    18    9   10 1
    19    9   13 1
    20    9   27 1
    21    9   28 1
    22   10   19 1
    23   10   29 1
    24   10   30 1
    25   11   12 1
    26   11   19 1
    27   11   31 1
    28   11   32 1
    29   12   13 1
    30   12   14 1
    31   12   33 1
    32   13   15 1
    33   13   22 1
    34   14   34 1
    35   14   35 1
    36   14   36 1
    37   15   37 1
    38   15   38 1
    39   15   39 1
    40   16   18 1
    41   16   40 1
    42   16   41 1
    43   17   18 1
    44   17   42 1
    45   22   43 1
