@<TRIPOS>MOLECULE
*****
   50    52     0     0     0
SMALL
NO_CHARGES

@<TRIPOS>ATOM
      1 C1          3.7296   -4.2813    2.0235 C.ar      1 <0>         0.0000
      2 C2          5.0270   -3.9315    2.4176 C.ar      1 <0>         0.0000
      3 C3          2.8276   -3.2891    1.6377 C.ar      1 <0>         0.0000
      4 C4          5.4075   -2.5897    2.4193 C.ar      1 <0>         0.0000
      5 C5          5.3932    1.7962    2.7902 C.2       1 <0>         0.0000
      6 C6          3.1896   -1.9350    1.6376 C.ar      1 <0>         0.0000
      7 C7          4.4932   -1.6013    2.0380 C.ar      1 <0>         0.0000
      8 C8          5.2826    1.7512    1.3739 C.2       1 <0>         0.0000
      9 C9          5.1394    0.5062    3.2284 C.2       1 <0>         0.0000
     10 C10         1.4679    0.8786    3.7884 C.3       1 <0>         0.0000
     11 C11         1.2682   -0.6200    3.5138 C.3       1 <0>         0.0000
     12 C12        -0.1457   -0.1419    1.6216 C.3       1 <0>         0.0000
     13 C13        -0.0689    1.3934    1.8351 C.3       1 <0>         0.0000
     14 C14         0.2566    1.7099    3.3214 C.3       1 <0>         0.0000
     15 C15         5.4557    2.8669    0.3872 C.3       1 <0>         0.0000
     16 C16         5.0896   -0.0636    4.6111 C.3       1 <0>         0.0000
     17 C17         0.8670    2.0996    0.8371 C.3       1 <0>         0.0000
     18 C18         0.4900    3.1984    3.5682 C.3       1 <0>         0.0000
     19 C19         2.1723   -0.8847    1.2433 C.3       1 <0>         0.0000
     20 N1          4.9777    0.5201    0.9586 N.2       1 <0>         0.0000
     21 N2          4.9000   -0.2335    2.0993 N.pl3     1 <0>         0.0000
     22 N3          0.9860   -0.9352    2.1098 N.3       1 <0>         0.0000
     23 O1         -0.8961    1.3965    4.1407 O.3       1 <0>         0.0000
     24 H1          3.4254   -5.3248    2.0167 H         1 <0>         0.0000
     25 H2          5.7385   -4.6981    2.7122 H         1 <0>         0.0000
     26 H3          1.8115   -3.5496    1.3535 H         1 <0>         0.0000
     27 H4          6.4134   -2.2963    2.7055 H         1 <0>         0.0000
     28 H5          5.6217    2.6529    3.4112 H         1 <0>         0.0000
     29 H6          1.6134    1.0459    4.8619 H         1 <0>         0.0000
     30 H7          2.3738    1.2304    3.2840 H         1 <0>         0.0000
     31 H8          2.1450   -1.1904    3.8306 H         1 <0>         0.0000
     32 H9          0.4333   -1.0032    4.1180 H         1 <0>         0.0000
     33 H10        -1.0455   -0.5236    2.1264 H         1 <0>         0.0000
     34 H11        -0.2881   -0.3575    0.5572 H         1 <0>         0.0000
     35 H12        -1.0819    1.7797    1.6618 H         1 <0>         0.0000
     36 H13         6.4692    3.2808    0.4286 H         1 <0>         0.0000
     37 H14         5.2735    2.4999   -0.6255 H         1 <0>         0.0000
     38 H15         4.7578    3.6868    0.5905 H         1 <0>         0.0000
     39 H16         4.2052   -0.6907    4.7557 H         1 <0>         0.0000
     40 H17         5.9667   -0.6818    4.8308 H         1 <0>         0.0000
     41 H18         5.0573    0.7481    5.3412 H         1 <0>         0.0000
     42 H19         1.9250    1.9875    1.0868 H         1 <0>         0.0000
     43 H20         0.6538    3.1716    0.7955 H         1 <0>         0.0000
     44 H21         0.7264    1.6985   -0.1725 H         1 <0>         0.0000
     45 H22        -0.3541    3.7873    3.1949 H         1 <0>         0.0000
     46 H23         1.4049    3.5457    3.0826 H         1 <0>         0.0000
     47 H24         0.5797    3.3761    4.6441 H         1 <0>         0.0000
     48 H25         2.6584    0.0913    1.2123 H         1 <0>         0.0000
     49 H26         1.8350   -1.0897    0.2208 H         1 <0>         0.0000
     50 H27        -1.1117    0.4586    4.0257 H         1 <0>         0.0000
@<TRIPOS>BOND
     1    1    2 ar
     2    1    3 ar
     3    1   24 1
     4    2    4 ar
     5    2   25 1
     6    3    6 ar
     7    3   26 1
     8    4    7 ar
     9    4   27 1
    10    5    8 1
    11    5    9 2
    12    5   28 1
    13    6    7 ar
    14    6   19 1
    15    7   21 1
    16    8   15 1
    17    8   20 2
    18    9   16 1
    19    9   21 1
    20   10   11 1
    21   10   14 1
    22   10   29 1
    23   10   30 1
    24   11   22 1
    25   11   31 1
    26   11   32 1
    27   12   13 1
    28   12   22 1
    29   12   33 1
    30   12   34 1
    31   13   14 1
    32   13   17 1
    33   13   35 1
    34   14   18 1
    35   14   23 1
    36   15   36 1
    37   15   37 1
    38   15   38 1
    39   16   39 1
    40   16   40 1
    41   16   41 1
    42   17   42 1
    43   17   43 1
    44   17   44 1
    45   18   45 1
    46   18   46 1
    47   18   47 1
    48   19   22 1
    49   19   48 1
    50   19   49 1
    51   20   21 1
    52   23   50 1
