@<TRIPOS>MOLECULE
*****
   22    23     0     0     0
SMALL
NO_CHARGES

@<TRIPOS>ATOM
      1 C1          2.7720    2.7138   -1.3238 C.ar      1 <0>         0.0000
      2 C2          1.7909    1.7170   -1.3839 C.ar      1 <0>         0.0000
      3 C3          2.8717    3.5250   -0.1945 C.ar      1 <0>         0.0000
      4 C4          0.8947    1.5048   -0.3343 C.ar      1 <0>         0.0000
      5 C5          1.0045    2.3177    0.8122 C.ar      1 <0>         0.0000
      6 C6          1.9851    3.3170    0.8621 C.ar      1 <0>         0.0000
      7 C7          0.2845   -0.8965    0.3540 C.3       1 <0>         0.0000
      8 C8          0.4541   -1.4673   -1.0761 C.3       1 <0>         0.0000
      9 C9         -0.1731    0.4286   -0.3378 C.3       1 <0>         0.0000
     10 N1         -0.3749   -0.3437   -1.5879 N.3       1 <0>         0.0000
     11 O1          0.1360    2.0799    1.8401 O.3       1 <0>         0.0000
     12 Cl1         2.0878    4.3253    2.3086 Cl        1 <0>         0.0000
     13 H1          3.4566    2.8595   -2.1542 H         1 <0>         0.0000
     14 H2          1.7300    1.0924   -2.2706 H         1 <0>         0.0000
     15 H3          3.6212    4.3067   -0.1240 H         1 <0>         0.0000
     16 H4         -0.5243   -1.3716    0.9124 H         1 <0>         0.0000
     17 H5          1.1771   -0.8320    0.9776 H         1 <0>         0.0000
     18 H6          1.5011   -1.4511   -1.4103 H         1 <0>         0.0000
     19 H7          0.0314   -2.4578   -1.2744 H         1 <0>         0.0000
     20 H8         -1.1023    0.8533    0.0535 H         1 <0>         0.0000
     21 H9         -0.0625    0.0973   -2.4500 H         1 <0>         0.0000
     22 H10         0.3099    2.7197    2.5534 H         1 <0>         0.0000
@<TRIPOS>BOND
     1    1    2 ar
     2    1    3 ar
     3    1   13 1
     4    2    4 ar
     5    2   14 1
     6    3    6 ar
     7    3   15 1
     8    4    5 ar
     9    4    9 1
    10    5    6 ar
    11    5   11 1
    12    6   12 1
    13    7    8 1
    14    7    9 1
    15    7   16 1
    16    7   17 1
    17    8   10 1
    18    8   18 1
    19    8   19 1
    20    9   10 1
    21    9   20 1
    22   10   21 1
    23   11   22 1
