@<TRIPOS>MOLECULE
*****
   39    42     0     0     0
SMALL
NO_CHARGES

@<TRIPOS>ATOM
      1 C1         -3.4916   -4.0584    5.4755 C.ar      1 <0>         0.0000
      2 C2          4.9532    0.0552   -0.6566 C.ar      1 <0>         0.0000
      3 C3         -3.2262   -4.4401    4.1763 C.ar      1 <0>         0.0000
      4 C4          3.6987    0.0259   -1.2705 C.ar      1 <0>         0.0000
      5 C5         -3.4400   -2.6940    5.8519 C.ar      1 <0>         0.0000
      6 C6         -2.3121   -2.7588    0.9628 C.ar      1 <0>         0.0000
      7 C7          5.0141   -0.0284    0.7360 C.ar      1 <0>         0.0000
      8 C8          2.7319   -0.1605    0.9112 C.ar      1 <0>         0.0000
      9 C9         -2.8964   -3.4581    3.2079 C.ar      1 <0>         0.0000
     10 C10         2.5483   -0.0845   -0.4825 C.ar      1 <0>         0.0000
     11 C11        -2.8334   -2.0730    3.5575 C.ar      1 <0>         0.0000
     12 C12        -2.6192   -3.7732    1.8456 C.ar      1 <0>         0.0000
     13 C13        -3.1210   -1.7434    4.9116 C.ar      1 <0>         0.0000
     14 C14        -2.2630   -1.4183    1.4320 C.ar      1 <0>         0.0000
     15 C15         0.1289    0.8623   -0.4962 C.3       1 <0>         0.0000
     16 C16         0.2267   -1.2411   -0.5857 C.3       1 <0>         0.0000
     17 C17         1.1773   -0.1198   -1.1021 C.3       1 <0>         0.0000
     18 C18        -1.8706   -0.3052    0.4826 C.3       1 <0>         0.0000
     19 N1          3.9268   -0.1347    1.5150 N.ar      1 <0>         0.0000
     20 N2         -2.5195   -1.0782    2.6821 N.ar      1 <0>         0.0000
     21 N3         -0.4273   -0.2535    0.2976 N.3       1 <0>         0.0000
     22 O1         -2.6844   -5.0888    1.4906 O.3       1 <0>         0.0000
     23 F1         -3.0756   -0.4463    5.2767 F         1 <0>         0.0000
     24 H1         -3.7437   -4.8042    6.2240 H         1 <0>         0.0000
     25 H2          5.8646    0.1407   -1.2420 H         1 <0>         0.0000
     26 H3         -3.2653   -5.4829    3.8808 H         1 <0>         0.0000
     27 H4          3.6142    0.0887   -2.3539 H         1 <0>         0.0000
     28 H5         -3.6468   -2.3820    6.8712 H         1 <0>         0.0000
     29 H6         -2.1105   -2.9730   -0.0847 H         1 <0>         0.0000
     30 H7          5.9740   -0.0093    1.2503 H         1 <0>         0.0000
     31 H8          1.8630   -0.2451    1.5627 H         1 <0>         0.0000
     32 H9          0.5070    1.7004    0.0989 H         1 <0>         0.0000
     33 H10        -0.5652    1.2404   -1.2649 H         1 <0>         0.0000
     34 H11        -0.4341   -1.6111   -1.3894 H         1 <0>         0.0000
     35 H12         0.6833   -2.0922   -0.0697 H         1 <0>         0.0000
     36 H13         1.2614   -0.0697   -2.1896 H         1 <0>         0.0000
     37 H14        -2.3956   -0.4295   -0.4854 H         1 <0>         0.0000
     38 H15        -2.1906    0.6399    0.9275 H         1 <0>         0.0000
     39 H16        -2.4718   -5.1757    0.5470 H         1 <0>         0.0000
@<TRIPOS>BOND
     1    1    3 ar
     2    1    5 ar
     3    1   24 1
     4    2    4 ar
     5    2    7 ar
     6    2   25 1
     7    3    9 ar
     8    3   26 1
     9    4   10 ar
    10    4   27 1
    11    5   13 ar
    12    5   28 1
    13    6   12 ar
    14    6   14 ar
    15    6   29 1
    16    7   19 ar
    17    7   30 1
    18    8   10 ar
    19    8   19 ar
    20    8   31 1
    21    9   11 ar
    22    9   12 ar
    23   10   17 1
    24   11   13 ar
    25   11   20 ar
    26   12   22 1
    27   13   23 1
    28   14   18 1
    29   14   20 ar
    30   15   17 1
    31   15   21 1
    32   15   32 1
    33   15   33 1
    34   16   17 1
    35   16   21 1
    36   16   34 1
    37   16   35 1
    38   17   36 1
    39   18   21 1
    40   18   37 1
    41   18   38 1
    42   22   39 1
