@<TRIPOS>MOLECULE
*****
   18    18     0     0     0
SMALL
NO_CHARGES

@<TRIPOS>ATOM
      1 C1          1.8337   -0.8510   -0.3005 C.ar      1 <0>         0.0000
      2 C2          0.7776   -0.3263    0.4422 C.ar      1 <0>         0.0000
      3 C3          2.9528   -1.4037    0.3342 C.ar      1 <0>         0.0000
      4 C4          1.9484   -0.8880    2.4927 C.ar      1 <0>         0.0000
      5 C5          0.8281   -0.3417    1.8457 C.ar      1 <0>         0.0000
      6 C6          2.9911   -1.4108    1.7279 C.ar      1 <0>         0.0000
      7 C7         -0.2937    0.2091    2.6446 C.2       1 <0>         0.0000
      8 N1         -1.0131    1.1399    2.1016 N.2       1 <0>         0.0000
      9 N2         -0.4626   -0.2530    3.9408 N.pl3     1 <0>         0.0000
     10 O1         -2.0591    1.5206    2.9928 O.3       1 <0>         0.0000
     11 Br1         4.5225   -2.1481    2.6209 Br        1 <0>         0.0000
     12 H1          1.7901   -0.8405   -1.3862 H         1 <0>         0.0000
     13 H2         -0.0930    0.0953   -0.0485 H         1 <0>         0.0000
     14 H3          3.7733   -1.8180   -0.2424 H         1 <0>         0.0000
     15 H4          2.0201   -0.8732    3.5747 H         1 <0>         0.0000
     16 H5         -0.2618   -1.2361    4.0794 H         1 <0>         0.0000
     17 H6         -1.3337    0.0471    4.3656 H         1 <0>         0.0000
     18 H7         -2.5080    2.2217    2.4955 H         1 <0>         0.0000
@<TRIPOS>BOND
     1    1    2 ar
     2    1    3 ar
     3    1   12 1
     4    2    5 ar
     5    2   13 1
     6    3    6 ar
     7    3   14 1
     8    4    5 ar
     9    4    6 ar
    10    4   15 1
    11    5    7 1
    12    6   11 1
    13    7    8 2
    14    7    9 1
    15    8   10 1
    16    9   16 1
    17    9   17 1
    18   10   18 1
