@<TRIPOS>MOLECULE
*****
   39    42     0     0     0
SMALL
NO_CHARGES

@<TRIPOS>ATOM
      1 C1         -3.5593   -4.9005    5.5722 C.ar      1 <0>         0.0000
      2 C2          3.4846   -1.6096   -1.5417 C.ar      1 <0>         0.0000
      3 C3         -2.7409   -5.0506    4.4709 C.ar      1 <0>         0.0000
      4 C4          2.4462   -1.0698   -0.7852 C.ar      1 <0>         0.0000
      5 C5         -4.0677   -3.6267    5.9247 C.ar      1 <0>         0.0000
      6 C6         -1.2854   -2.8512    1.8169 C.ar      1 <0>         0.0000
      7 C7          4.7088   -0.9322   -1.5844 C.ar      1 <0>         0.0000
      8 C8          3.9243    0.7209   -0.2108 C.ar      1 <0>         0.0000
      9 C9         -2.4063   -3.9203    3.6829 C.ar      1 <0>         0.0000
     10 C10         2.6574    0.1321   -0.0922 C.ar      1 <0>         0.0000
     11 C11        -2.9044   -2.6213    4.0130 C.ar      1 <0>         0.0000
     12 C12        -1.5653   -3.9954    2.5330 C.ar      1 <0>         0.0000
     13 C13        -3.7408   -2.5317    5.1603 C.ar      1 <0>         0.0000
     14 C14        -1.8421   -1.6169    2.2439 C.ar      1 <0>         0.0000
     15 C15         0.9130   -0.1621    1.7990 C.3       1 <0>         0.0000
     16 C16         0.1729    0.8465    0.0991 C.3       1 <0>         0.0000
     17 C17         1.5869    0.7710    0.7485 C.3       1 <0>         0.0000
     18 C18        -1.5668   -0.3561    1.4488 C.3       1 <0>         0.0000
     19 N1          4.9348    0.2155   -0.9330 N.ar      1 <0>         0.0000
     20 N2         -2.6184   -1.4925    3.3052 N.ar      1 <0>         0.0000
     21 N3         -0.2322   -0.3486    0.8745 N.3       1 <0>         0.0000
     22 O1         -1.0776   -5.2267    2.2056 O.3       1 <0>         0.0000
     23 F1         -4.2279   -1.3209    5.5031 F         1 <0>         0.0000
     24 H1         -3.8212   -5.7614    6.1805 H         1 <0>         0.0000
     25 H2          3.3559   -2.5372   -2.0932 H         1 <0>         0.0000
     26 H3         -2.3473   -6.0228    4.1952 H         1 <0>         0.0000
     27 H4          1.4782   -1.5624   -0.7248 H         1 <0>         0.0000
     28 H5         -4.7120   -3.4959    6.7889 H         1 <0>         0.0000
     29 H6         -0.6434   -2.8615    0.9396 H         1 <0>         0.0000
     30 H7          5.5400   -1.3280   -2.1664 H         1 <0>         0.0000
     31 H8          4.1343    1.6565    0.3084 H         1 <0>         0.0000
     32 H9          1.4427   -1.0831    2.0634 H         1 <0>         0.0000
     33 H10         0.6395    0.3765    2.7193 H         1 <0>         0.0000
     34 H11        -0.3651    1.7595    0.3979 H         1 <0>         0.0000
     35 H12         0.1125    0.7287   -0.9883 H         1 <0>         0.0000
     36 H13         1.9488    1.7177    1.1539 H         1 <0>         0.0000
     37 H14        -2.2903   -0.2937    0.6247 H         1 <0>         0.0000
     38 H15        -1.7527    0.5058    2.1107 H         1 <0>         0.0000
     39 H16        -0.5218   -5.1467    1.4131 H         1 <0>         0.0000
@<TRIPOS>BOND
     1    1    3 ar
     2    1    5 ar
     3    1   24 1
     4    2    4 ar
     5    2    7 ar
     6    2   25 1
     7    3    9 ar
     8    3   26 1
     9    4   10 ar
    10    4   27 1
    11    5   13 ar
    12    5   28 1
    13    6   12 ar
    14    6   14 ar
    15    6   29 1
    16    7   19 ar
    17    7   30 1
    18    8   10 ar
    19    8   19 ar
    20    8   31 1
    21    9   11 ar
    22    9   12 ar
    23   10   17 1
    24   11   13 ar
    25   11   20 ar
    26   12   22 1
    27   13   23 1
    28   14   18 1
    29   14   20 ar
    30   15   17 1
    31   15   21 1
    32   15   32 1
    33   15   33 1
    34   16   17 1
    35   16   21 1
    36   16   34 1
    37   16   35 1
    38   17   36 1
    39   18   21 1
    40   18   37 1
    41   18   38 1
    42   22   39 1
