@<TRIPOS>MOLECULE
*****
   32    33     0     0     0
SMALL
NO_CHARGES

@<TRIPOS>ATOM
      1 C1          2.5690    0.0670   -3.0986 C.2       1 <0>         0.0000
      2 C2         -0.5017   -1.4961    2.2707 C.3       1 <0>         0.0000
      3 C3         -1.0240   -1.1404    0.8718 C.3       1 <0>         0.0000
      4 C4         -0.3570    0.8595   -0.7565 C.3       1 <0>         0.0000
      5 C5          1.2391   -0.4789   -0.3391 C.3       1 <0>         0.0000
      6 C6         -0.0245   -0.1285    2.7906 C.3       1 <0>         0.0000
      7 C7         -0.0392   -0.0582    0.4425 C.3       1 <0>         0.0000
      8 C8          4.2043   -0.1897   -4.8969 C.3       1 <0>         0.0000
      9 C9          1.8855    0.4502   -5.4733 C.3       1 <0>         0.0000
     10 C10         1.1309    0.4122   -2.6946 C.3       1 <0>         0.0000
     11 N1          1.0128    0.6474   -1.2782 N.3       1 <0>         0.0000
     12 N2          2.8353    0.0391   -4.4484 N.am      1 <0>         0.0000
     13 O1          3.4197   -0.2086   -2.2536 O.2       1 <0>         0.0000
     14 O2          0.2266    0.6900    1.6326 O.3       1 <0>         0.0000
     15 H1         -1.2578   -1.9506    2.9167 H         1 <0>         0.0000
     16 H2          0.3391   -2.1932    2.1911 H         1 <0>         0.0000
     17 H3         -1.0505   -1.9898    0.1847 H         1 <0>         0.0000
     18 H4         -2.0328   -0.7139    0.9319 H         1 <0>         0.0000
     19 H5         -1.1489    0.4376   -1.3991 H         1 <0>         0.0000
     20 H6         -0.5971    1.8993   -0.5110 H         1 <0>         0.0000
     21 H7          2.1876   -0.4223    0.1975 H         1 <0>         0.0000
     22 H8          1.1441   -1.4694   -0.8118 H         1 <0>         0.0000
     23 H9         -0.7938    0.3663    3.3966 H         1 <0>         0.0000
     24 H10         0.8917   -0.2005    3.3871 H         1 <0>         0.0000
     25 H11         4.2322   -1.0044   -5.6302 H         1 <0>         0.0000
     26 H12         4.8145   -0.4556   -4.0353 H         1 <0>         0.0000
     27 H13         4.6163    0.7147   -5.3639 H         1 <0>         0.0000
     28 H14         1.9444    1.5274   -5.6854 H         1 <0>         0.0000
     29 H15         0.8615    0.2035   -5.1915 H         1 <0>         0.0000
     30 H16         2.1082   -0.0891   -6.3989 H         1 <0>         0.0000
     31 H17         0.7991    1.3153   -3.2196 H         1 <0>         0.0000
     32 H18         0.4743   -0.4149   -3.0446 H         1 <0>         0.0000
@<TRIPOS>BOND
     1    1   10 1
     2    1   12 am
     3    1   13 2
     4    2    3 1
     5    2    6 1
     6    2   15 1
     7    2   16 1
     8    3    7 1
     9    3   17 1
    10    3   18 1
    11    4    7 1
    12    4   11 1
    13    4   19 1
    14    4   20 1
    15    5    7 1
    16    5   11 1
    17    5   21 1
    18    5   22 1
    19    6   14 1
    20    6   23 1
    21    6   24 1
    22    7   14 1
    23    8   12 1
    24    8   25 1
    25    8   26 1
    26    8   27 1
    27    9   12 1
    28    9   28 1
    29    9   29 1
    30    9   30 1
    31   10   11 1
    32   10   31 1
    33   10   32 1
