@<TRIPOS>MOLECULE
*****
   32    34     0     0     0
SMALL
NO_CHARGES

@<TRIPOS>ATOM
      1 C1          7.5573   -1.6073    1.4586 C.1       1 <0>         0.0000
      2 C2          1.7968    1.3996    1.6960 C.ar      1 <0>         0.0000
      3 C3          0.4533    1.0854    1.9174 C.ar      1 <0>         0.0000
      4 C4          2.7529    0.3888    1.7499 C.ar      1 <0>         0.0000
      5 C5          0.0843   -0.2339    2.1894 C.ar      1 <0>         0.0000
      6 C6          6.3097   -6.1074    2.5202 C.2       1 <0>         0.0000
      7 C7          6.5724   -7.4276    2.7429 C.2       1 <0>         0.0000
      8 C8          8.6218   -6.1690    2.1892 C.2       1 <0>         0.0000
      9 C9          2.3849   -0.9426    2.0239 C.ar      1 <0>         0.0000
     10 C10         7.4956   -5.3491    2.1936 C.2       1 <0>         0.0000
     11 C11         1.0253   -1.2716    2.2498 C.ar      1 <0>         0.0000
     12 C12         3.4744   -1.9315    2.0573 C.2       1 <0>         0.0000
     13 C13         5.4456   -2.6873    1.9411 C.2       1 <0>         0.0000
     14 C14         7.6920   -3.9470    1.8912 C.2       1 <0>         0.0000
     15 C15         6.8877   -2.8422    1.7837 C.2       1 <0>         0.0000
     16 C16         0.5506   -2.6724    2.5487 C.3       1 <0>         0.0000
     17 N1          8.1404   -0.6338    1.1949 N.1       1 <0>         0.0000
     18 N2          4.7908   -1.5637    1.8305 N.2       1 <0>         0.0000
     19 N3          3.3241   -3.2238    2.2967 N.2       1 <0>         0.0000
     20 O1          4.6410   -3.7332    2.2190 O.3       1 <0>         0.0000
     21 S1          8.2619   -7.8010    2.5649 S.3       1 <0>         0.0000
     22 H1          2.0980    2.4215    1.4832 H         1 <0>         0.0000
     23 H2         -0.3060    1.8624    1.8789 H         1 <0>         0.0000
     24 H3          3.8003    0.6128    1.5807 H         1 <0>         0.0000
     25 H4         -0.9632   -0.4697    2.3603 H         1 <0>         0.0000
     26 H5          5.3183   -5.6886    2.5843 H         1 <0>         0.0000
     27 H6          5.8709   -8.2102    3.0025 H         1 <0>         0.0000
     28 H7          9.6417   -5.8703    1.9794 H         1 <0>         0.0000
     29 H8          8.7380   -3.7148    1.7050 H         1 <0>         0.0000
     30 H9          0.8080   -3.3646    1.7415 H         1 <0>         0.0000
     31 H10         1.0207   -3.0716    3.4523 H         1 <0>         0.0000
     32 H11        -0.5338   -2.6838    2.6855 H         1 <0>         0.0000
@<TRIPOS>BOND
     1    1   15 1
     2    1   17 3
     3    2    3 ar
     4    2    4 ar
     5    2   22 1
     6    3    5 ar
     7    3   23 1
     8    4    9 ar
     9    4   24 1
    10    5   11 ar
    11    5   25 1
    12    6    7 2
    13    6   10 1
    14    6   26 1
    15    7   21 1
    16    7   27 1
    17    8   10 2
    18    8   21 1
    19    8   28 1
    20    9   11 ar
    21    9   12 1
    22   10   14 1
    23   11   16 1
    24   12   18 1
    25   12   19 2
    26   13   15 1
    27   13   18 2
    28   13   20 1
    29   14   15 2
    30   14   29 1
    31   16   30 1
    32   16   31 1
    33   16   32 1
    34   19   20 1
