@<TRIPOS>MOLECULE
*****
   22    22     0     0     0
SMALL
NO_CHARGES

@<TRIPOS>ATOM
      1 C1          1.6496   -1.5218    0.2894 C.ar      1 <0>         0.0000
      2 C2          0.7546   -0.8285    1.1080 C.ar      1 <0>         0.0000
      3 C3          2.4272   -0.7445    2.8603 C.ar      1 <0>         0.0000
      4 C4          2.9399   -1.8309    0.7375 C.ar      1 <0>         0.0000
      5 C5          1.1488   -0.4443    2.3872 C.ar      1 <0>         0.0000
      6 C6          3.3134   -1.4328    2.0347 C.ar      1 <0>         0.0000
      7 C7          2.6337   -3.9756   -1.5169 C.2       1 <0>         0.0000
      8 C8          3.5966   -2.8166   -1.3389 C.3       1 <0>         0.0000
      9 N1          2.3383   -4.6996   -0.4962 N.2       1 <0>         0.0000
     10 N2          2.0930   -4.1161   -2.7852 N.pl3     1 <0>         0.0000
     11 O1          1.4302   -5.7290   -0.8895 O.3       1 <0>         0.0000
     12 O2          3.8860   -2.4871    0.0048 O.3       1 <0>         0.0000
     13 Cl1         0.0294    0.4236    3.4265 Cl        1 <0>         0.0000
     14 Cl2         4.9165   -1.8035    2.6252 Cl        1 <0>         0.0000
     15 H1          1.3156   -1.8396   -0.6911 H         1 <0>         0.0000
     16 H2         -0.2442   -0.6002    0.7510 H         1 <0>         0.0000
     17 H3          2.7357   -0.4468    3.8564 H         1 <0>         0.0000
     18 H4          3.2096   -1.9442   -1.8832 H         1 <0>         0.0000
     19 H5          4.5639   -3.0816   -1.7778 H         1 <0>         0.0000
     20 H6          2.6709   -3.7976   -3.5543 H         1 <0>         0.0000
     21 H7          1.6593   -5.0190   -2.9474 H         1 <0>         0.0000
     22 H8          1.2924   -6.2069   -0.0568 H         1 <0>         0.0000
@<TRIPOS>BOND
     1    1    2 ar
     2    1    4 ar
     3    1   15 1
     4    2    5 ar
     5    2   16 1
     6    3    5 ar
     7    3    6 ar
     8    3   17 1
     9    4    6 ar
    10    4   12 1
    11    5   13 1
    12    6   14 1
    13    7    8 1
    14    7    9 2
    15    7   10 1
    16    8   12 1
    17    8   18 1
    18    8   19 1
    19    9   11 1
    20   10   20 1
    21   10   21 1
    22   11   22 1
