@<TRIPOS>MOLECULE
*****
   39    42     0     0     0
SMALL
NO_CHARGES

@<TRIPOS>ATOM
      1 C1          1.3295   -3.1763    6.0587 C.ar      1 <0>         0.0000
      2 C2          2.3344    5.5397   -2.9051 C.ar      1 <0>         0.0000
      3 C3          1.9891   -1.9730    5.9141 C.ar      1 <0>         0.0000
      4 C4          1.8166    4.3400   -2.4153 C.ar      1 <0>         0.0000
      5 C5          0.2323   -3.5028    5.2245 C.ar      1 <0>         0.0000
      6 C6          1.7187    1.0510    3.7298 C.ar      1 <0>         0.0000
      7 C7          3.5758    5.9760   -2.4322 C.ar      1 <0>         0.0000
      8 C8          3.7827    4.1481   -1.0699 C.ar      1 <0>         0.0000
      9 C9          1.5672   -1.0540    4.9197 C.ar      1 <0>         0.0000
     10 C10         2.5497    3.6110   -1.4707 C.ar      1 <0>         0.0000
     11 C11         0.4643   -1.3554    4.0604 C.ar      1 <0>         0.0000
     12 C12         2.1922    0.2108    4.7163 C.ar      1 <0>         0.0000
     13 C13        -0.1763   -2.6103    4.2622 C.ar      1 <0>         0.0000
     14 C14         0.6233    0.6342    2.9262 C.ar      1 <0>         0.0000
     15 C15         0.5525    2.1216   -0.5965 C.3       1 <0>         0.0000
     16 C16         2.2998    1.9527    0.5677 C.3       1 <0>         0.0000
     17 C17         2.0588    2.3004   -0.9250 C.3       1 <0>         0.0000
     18 C18         0.1358    1.5280    1.8050 C.3       1 <0>         0.0000
     19 N1          4.2962    5.2976   -1.5280 N.ar      1 <0>         0.0000
     20 N2          0.0079   -0.5239    3.0838 N.ar      1 <0>         0.0000
     21 N3          0.9464    1.3553    0.6064 N.3       1 <0>         0.0000
     22 O1          3.2395    0.5210    5.5334 O.3       1 <0>         0.0000
     23 F1         -1.2228   -2.9276    3.4731 F         1 <0>         0.0000
     24 H1          1.6468   -3.8864    6.8170 H         1 <0>         0.0000
     25 H2          1.7898    6.1299   -3.6371 H         1 <0>         0.0000
     26 H3          2.8286   -1.7155    6.5506 H         1 <0>         0.0000
     27 H4          0.8520    3.9746   -2.7610 H         1 <0>         0.0000
     28 H5         -0.2944   -4.4465    5.3292 H         1 <0>         0.0000
     29 H6          2.1702    2.0269    3.5636 H         1 <0>         0.0000
     30 H7          4.0087    6.9082   -2.7919 H         1 <0>         0.0000
     31 H8          4.3895    3.6191   -0.3350 H         1 <0>         0.0000
     32 H9          0.0782    3.0881   -0.3561 H         1 <0>         0.0000
     33 H10        -0.0773    1.5714   -1.3034 H         1 <0>         0.0000
     34 H11         3.1158    1.2694    0.8231 H         1 <0>         0.0000
     35 H12         2.3838    2.8686    1.1784 H         1 <0>         0.0000
     36 H13         2.4007    1.4754   -1.5581 H         1 <0>         0.0000
     37 H14        -0.8900    1.2375    1.5651 H         1 <0>         0.0000
     38 H15         0.1297    2.5842    2.1393 H         1 <0>         0.0000
     39 H16         3.5768    1.4015    5.3003 H         1 <0>         0.0000
@<TRIPOS>BOND
     1    1    3 ar
     2    1    5 ar
     3    1   24 1
     4    2    4 ar
     5    2    7 ar
     6    2   25 1
     7    3    9 ar
     8    3   26 1
     9    4   10 ar
    10    4   27 1
    11    5   13 ar
    12    5   28 1
    13    6   12 ar
    14    6   14 ar
    15    6   29 1
    16    7   19 ar
    17    7   30 1
    18    8   10 ar
    19    8   19 ar
    20    8   31 1
    21    9   11 ar
    22    9   12 ar
    23   10   17 1
    24   11   13 ar
    25   11   20 ar
    26   12   22 1
    27   13   23 1
    28   14   18 1
    29   14   20 ar
    30   15   17 1
    31   15   21 1
    32   15   32 1
    33   15   33 1
    34   16   17 1
    35   16   21 1
    36   16   34 1
    37   16   35 1
    38   17   36 1
    39   18   21 1
    40   18   37 1
    41   18   38 1
    42   22   39 1
