@<TRIPOS>MOLECULE
*****
   39    42     0     0     0
SMALL
NO_CHARGES

@<TRIPOS>ATOM
      1 C1          3.7235   -4.6696    4.2796 C.ar      1 <0>         0.0000
      2 C2          1.8358    3.4831   -4.1243 C.ar      1 <0>         0.0000
      3 C3          3.4762   -3.5002    4.9701 C.ar      1 <0>         0.0000
      4 C4          1.2070    2.9006   -3.0232 C.ar      1 <0>         0.0000
      5 C5          3.5379   -4.7323    2.8771 C.ar      1 <0>         0.0000
      6 C6          2.3244   -0.0342    4.1582 C.ar      1 <0>         0.0000
      7 C7          2.8895    2.7950   -4.7337 C.ar      1 <0>         0.0000
      8 C8          2.7126    1.0583   -3.2514 C.ar      1 <0>         0.0000
      9 C9          3.0324   -2.3499    4.2700 C.ar      1 <0>         0.0000
     10 C10         1.6452    1.6531   -2.5609 C.ar      1 <0>         0.0000
     11 C11         2.8342   -2.3825    2.8554 C.ar      1 <0>         0.0000
     12 C12         2.7558   -1.1059    4.9110 C.ar      1 <0>         0.0000
     13 C13         3.1065   -3.6156    2.2014 C.ar      1 <0>         0.0000
     14 C14         2.1625   -0.1895    2.7538 C.ar      1 <0>         0.0000
     15 C15         0.6170    1.8010   -0.1402 C.3       1 <0>         0.0000
     16 C16         1.8392    0.1055   -0.4252 C.3       1 <0>         0.0000
     17 C17         0.9904    0.9685   -1.3952 C.3       1 <0>         0.0000
     18 C18         1.7361    1.0104    1.9310 C.3       1 <0>         0.0000
     19 N1          3.3280    1.6013   -4.3111 N.ar      1 <0>         0.0000
     20 N2          2.4108   -1.3183    2.1192 N.ar      1 <0>         0.0000
     21 N3          1.0513    0.6652    0.7036 N.3       1 <0>         0.0000
     22 O1          2.9351   -1.0562    6.2623 O.3       1 <0>         0.0000
     23 F1          2.9317   -3.6808    0.8642 F         1 <0>         0.0000
     24 H1          4.0642   -5.5553    4.8082 H         1 <0>         0.0000
     25 H2          1.5209    4.4507   -4.5057 H         1 <0>         0.0000
     26 H3          3.6162   -3.4450    6.0441 H         1 <0>         0.0000
     27 H4          0.3851    3.4108   -2.5250 H         1 <0>         0.0000
     28 H5          3.7294   -5.6463    2.3231 H         1 <0>         0.0000
     29 H6          2.1000    0.9227    4.6263 H         1 <0>         0.0000
     30 H7          3.4036    3.2199   -5.5948 H         1 <0>         0.0000
     31 H8          3.0927    0.0897   -2.9283 H         1 <0>         0.0000
     32 H9          1.2681    2.6866   -0.0431 H         1 <0>         0.0000
     33 H10        -0.4277    2.1025   -0.0024 H         1 <0>         0.0000
     34 H11         1.8011   -0.9809   -0.5085 H         1 <0>         0.0000
     35 H12         2.8919    0.4293   -0.4048 H         1 <0>         0.0000
     36 H13         0.1197    0.3985   -1.7362 H         1 <0>         0.0000
     37 H14         1.0631    1.6342    2.5315 H         1 <0>         0.0000
     38 H15         2.6422    1.6245    1.7399 H         1 <0>         0.0000
     39 H16         2.7159   -0.1656    6.5815 H         1 <0>         0.0000
@<TRIPOS>BOND
     1    1    3 ar
     2    1    5 ar
     3    1   24 1
     4    2    4 ar
     5    2    7 ar
     6    2   25 1
     7    3    9 ar
     8    3   26 1
     9    4   10 ar
    10    4   27 1
    11    5   13 ar
    12    5   28 1
    13    6   12 ar
    14    6   14 ar
    15    6   29 1
    16    7   19 ar
    17    7   30 1
    18    8   10 ar
    19    8   19 ar
    20    8   31 1
    21    9   11 ar
    22    9   12 ar
    23   10   17 1
    24   11   13 ar
    25   11   20 ar
    26   12   22 1
    27   13   23 1
    28   14   18 1
    29   14   20 ar
    30   15   17 1
    31   15   21 1
    32   15   32 1
    33   15   33 1
    34   16   17 1
    35   16   21 1
    36   16   34 1
    37   16   35 1
    38   17   36 1
    39   18   21 1
    40   18   37 1
    41   18   38 1
    42   22   39 1
