@<TRIPOS>MOLECULE
*****
   39    42     0     0     0
SMALL
NO_CHARGES

@<TRIPOS>ATOM
      1 C1          0.8024   -3.1371    6.4200 C.ar      1 <0>         0.0000
      2 C2          5.3868    4.7534   -1.1168 C.ar      1 <0>         0.0000
      3 C3          1.5759   -1.9973    6.3408 C.ar      1 <0>         0.0000
      4 C4          4.7667    3.6147   -0.6021 C.ar      1 <0>         0.0000
      5 C5         -0.2171   -3.3853    5.4685 C.ar      1 <0>         0.0000
      6 C6          1.8177    0.9959    4.1110 C.ar      1 <0>         0.0000
      7 C7          4.6875    5.5357   -2.0413 C.ar      1 <0>         0.0000
      8 C8          2.8674    4.1491   -1.9516 C.ar      1 <0>         0.0000
      9 C9          1.3508   -1.0651    5.2959 C.ar      1 <0>         0.0000
     10 C10         3.4700    3.2892   -1.0210 C.ar      1 <0>         0.0000
     11 C11         0.3304   -1.2881    4.3186 C.ar      1 <0>         0.0000
     12 C12         2.1016    0.1378    5.1535 C.ar      1 <0>         0.0000
     13 C13        -0.4352   -2.4802    4.4573 C.ar      1 <0>         0.0000
     14 C14         0.7878    0.6589    3.1918 C.ar      1 <0>         0.0000
     15 C15         1.2269    2.0623   -0.3389 C.3       1 <0>         0.0000
     16 C16         2.8190    1.7242    0.9975 C.3       1 <0>         0.0000
     17 C17         2.7679    2.0607   -0.5171 C.3       1 <0>         0.0000
     18 C18         0.5095    1.5696    2.0143 C.3       1 <0>         0.0000
     19 N1          3.4475    5.2461   -2.4579 N.ar      1 <0>         0.0000
     20 N2          0.0607   -0.4395    3.2891 N.ar      1 <0>         0.0000
     21 N3          1.4103    1.2820    0.9054 N.3       1 <0>         0.0000
     22 O1          3.0724    0.3745    6.0827 O.3       1 <0>         0.0000
     23 F1         -1.4086   -2.7227    3.5563 F         1 <0>         0.0000
     24 H1          0.9687   -3.8567    7.2166 H         1 <0>         0.0000
     25 H2          6.3910    5.0343   -0.8111 H         1 <0>         0.0000
     26 H3          2.3567   -1.7997    7.0671 H         1 <0>         0.0000
     27 H4          5.2831    2.9841    0.1189 H         1 <0>         0.0000
     28 H5         -0.8321   -4.2786    5.5211 H         1 <0>         0.0000
     29 H6          2.3680    1.9265    3.9879 H         1 <0>         0.0000
     30 H7          5.1407    6.4316   -2.4633 H         1 <0>         0.0000
     31 H8          1.8588    3.9410   -2.3077 H         1 <0>         0.0000
     32 H9          0.8446    3.0801   -0.1544 H         1 <0>         0.0000
     33 H10         0.6102    1.5733   -1.0998 H         1 <0>         0.0000
     34 H11         3.5231    0.9608    1.3439 H         1 <0>         0.0000
     35 H12         2.9459    2.6411    1.6000 H         1 <0>         0.0000
     36 H13         3.0731    1.1857   -1.1000 H         1 <0>         0.0000
     37 H14        -0.5128    1.3823    1.6768 H         1 <0>         0.0000
     38 H15         0.5835    2.6288    2.3301 H         1 <0>         0.0000
     39 H16         3.5063    1.2200    5.8824 H         1 <0>         0.0000
@<TRIPOS>BOND
     1    1    3 ar
     2    1    5 ar
     3    1   24 1
     4    2    4 ar
     5    2    7 ar
     6    2   25 1
     7    3    9 ar
     8    3   26 1
     9    4   10 ar
    10    4   27 1
    11    5   13 ar
    12    5   28 1
    13    6   12 ar
    14    6   14 ar
    15    6   29 1
    16    7   19 ar
    17    7   30 1
    18    8   10 ar
    19    8   19 ar
    20    8   31 1
    21    9   11 ar
    22    9   12 ar
    23   10   17 1
    24   11   13 ar
    25   11   20 ar
    26   12   22 1
    27   13   23 1
    28   14   18 1
    29   14   20 ar
    30   15   17 1
    31   15   21 1
    32   15   32 1
    33   15   33 1
    34   16   17 1
    35   16   21 1
    36   16   34 1
    37   16   35 1
    38   17   36 1
    39   18   21 1
    40   18   37 1
    41   18   38 1
    42   22   39 1
