@<TRIPOS>MOLECULE
*****
   25    26     0     0     0
SMALL
NO_CHARGES

@<TRIPOS>ATOM
      1 C1         -0.6456    1.3264    1.5863 C.ar      1 <0>         0.0000
      2 C2         -1.6288    1.6419    2.5176 C.ar      1 <0>         0.0000
      3 C3         -0.7254    0.1574    0.7954 C.ar      1 <0>         0.0000
      4 C4         -4.6013   -0.4008    3.1803 C.2       1 <0>         0.0000
      5 C5         -2.7179    0.7615    2.6615 C.ar      1 <0>         0.0000
      6 C6         -3.8949    0.7429    3.5048 C.2       1 <0>         0.0000
      7 C7         -1.7874   -0.7390    0.9083 C.ar      1 <0>         0.0000
      8 C8         -2.7703   -0.4060    1.8549 C.ar      1 <0>         0.0000
      9 C9         -4.2950    1.7153    4.5219 C.2       1 <0>         0.0000
     10 C10        -1.8956   -1.9931    0.0767 C.3       1 <0>         0.0000
     11 N1         -3.7778    2.9048    4.4759 N.2       1 <0>         0.0000
     12 N2         -3.9269   -1.0952    2.1959 N.pl3     1 <0>         0.0000
     13 N3         -5.2580    1.3201    5.4493 N.pl3     1 <0>         0.0000
     14 O1         -4.2703    3.6851    5.5710 O.3       1 <0>         0.0000
     15 H1          0.2038    1.9920    1.4555 H         1 <0>         0.0000
     16 H2         -1.5790    2.5441    3.1167 H         1 <0>         0.0000
     17 H3          0.0635   -0.0510    0.0759 H         1 <0>         0.0000
     18 H4         -5.5531   -0.7528    3.5548 H         1 <0>         0.0000
     19 H5         -1.9218   -2.8927    0.7052 H         1 <0>         0.0000
     20 H6         -2.8062   -1.9936   -0.5363 H         1 <0>         0.0000
     21 H7         -1.0436   -2.0900   -0.6009 H         1 <0>         0.0000
     22 H8         -4.2526   -1.9459    1.7610 H         1 <0>         0.0000
     23 H9         -5.3589    1.9805    6.2132 H         1 <0>         0.0000
     24 H10        -5.1492    0.3651    5.7697 H         1 <0>         0.0000
     25 H11        -3.8183    4.5316    5.4339 H         1 <0>         0.0000
@<TRIPOS>BOND
     1    1    2 ar
     2    1    3 ar
     3    1   15 1
     4    2    5 ar
     5    2   16 1
     6    3    7 ar
     7    3   17 1
     8    4    6 2
     9    4   12 1
    10    4   18 1
    11    5    6 1
    12    5    8 ar
    13    6    9 1
    14    7    8 ar
    15    7   10 1
    16    8   12 1
    17    9   11 2
    18    9   13 1
    19   10   19 1
    20   10   20 1
    21   10   21 1
    22   11   14 1
    23   12   22 1
    24   13   23 1
    25   13   24 1
    26   14   25 1
