@<TRIPOS>MOLECULE
*****
   41    43     0     0     0
SMALL
NO_CHARGES

@<TRIPOS>ATOM
      1 C1         -0.6846   -4.6319    1.4730 C.ar      1 <0>         0.0000
      2 C2         -1.7020   -4.0747    0.6899 C.ar      1 <0>         0.0000
      3 C3          0.5574   -4.9053    0.8943 C.ar      1 <0>         0.0000
      4 C4         -1.4695   -3.7651   -0.6520 C.ar      1 <0>         0.0000
      5 C5          0.7892   -4.5913   -0.4492 C.ar      1 <0>         0.0000
      6 C6         -0.2113   -3.9972   -1.2303 C.ar      1 <0>         0.0000
      7 C7         -0.2364   -2.0299   -2.7794 C.2       1 <0>         0.0000
      8 C8         -0.2713    0.8401   -1.0536 C.3       1 <0>         0.0000
      9 C9          1.9024   -0.8761   -0.1646 C.3       1 <0>         0.0000
     10 C10         0.3388    0.2993   -2.3792 C.3       1 <0>         0.0000
     11 C11         1.9085   -1.4486   -1.5960 C.3       1 <0>         0.0000
     12 C12        -1.4124    0.3899    1.1619 C.3       1 <0>         0.0000
     13 C13        -0.6539   -0.2452   -0.0411 C.3       1 <0>         0.0000
     14 C14         0.5479   -1.0670    0.5138 C.3       1 <0>         0.0000
     15 C15         0.0654   -3.5272   -2.6483 C.3       1 <0>         0.0000
     16 N1         -1.0465   -0.3981    2.3544 N.pl3     1 <0>         0.0000
     17 N2          0.6928   -1.1210   -2.3351 N.am      1 <0>         0.0000
     18 O1         -1.3234   -1.6676   -3.2399 O.2       1 <0>         0.0000
     19 O2          1.3336    0.7130    2.3683 O.2       1 <0>         0.0000
     20 O3          1.0633   -1.6800    3.1542 O.2       1 <0>         0.0000
     21 S1          0.6474   -0.5905    2.2672 S.o2      1 <0>         0.0000
     22 H1         -0.8535   -4.8383    2.5256 H         1 <0>         0.0000
     23 H2         -2.6711   -3.8608    1.1327 H         1 <0>         0.0000
     24 H3          1.3531   -5.3386    1.4938 H         1 <0>         0.0000
     25 H4         -2.2538   -3.3114   -1.2527 H         1 <0>         0.0000
     26 H5          1.7657   -4.7931   -0.8853 H         1 <0>         0.0000
     27 H6          0.4167    1.5448   -0.5755 H         1 <0>         0.0000
     28 H7         -1.1759    1.4093   -1.2931 H         1 <0>         0.0000
     29 H8          2.6800   -1.3911    0.4098 H         1 <0>         0.0000
     30 H9          2.1691    0.1829   -0.1649 H         1 <0>         0.0000
     31 H10        -0.3703    0.4224   -3.1956 H         1 <0>         0.0000
     32 H11         1.2462    0.8581   -2.6304 H         1 <0>         0.0000
     33 H12         2.7791   -1.0521   -2.1341 H         1 <0>         0.0000
     34 H13         2.0203   -2.5275   -1.5507 H         1 <0>         0.0000
     35 H14        -1.1328    1.4454    1.2725 H         1 <0>         0.0000
     36 H15        -2.4927    0.3245    1.0157 H         1 <0>         0.0000
     37 H16        -1.3247   -0.9577   -0.5218 H         1 <0>         0.0000
     38 H17         0.2870   -2.1230    0.5573 H         1 <0>         0.0000
     39 H18         1.0879   -3.7744   -2.9448 H         1 <0>         0.0000
     40 H19        -0.6122   -4.0141   -3.3531 H         1 <0>         0.0000
     41 H20        -1.2961    0.0514    3.2365 H         1 <0>         0.0000
@<TRIPOS>BOND
     1    1    3 ar
     2    1    2 ar
     3    1   22 1
     4    2    4 ar
     5    2   23 1
     6    3    5 ar
     7    3   24 1
     8    4    6 ar
     9    4   25 1
    10    5    6 ar
    11    5   26 1
    12    6   15 1
    13    7   15 1
    14    7   17 am
    15    7   18 2
    16    8   10 1
    17    8   13 1
    18    8   27 1
    19    8   28 1
    20    9   11 1
    21    9   14 1
    22    9   29 1
    23    9   30 1
    24   10   17 1
    25   10   31 1
    26   10   32 1
    27   11   17 1
    28   11   33 1
    29   11   34 1
    30   12   13 1
    31   12   16 1
    32   12   35 1
    33   12   36 1
    34   13   14 1
    35   13   37 1
    36   14   21 1
    37   14   38 1
    38   15   39 1
    39   15   40 1
    40   16   21 1
    41   16   41 1
    42   19   21 2
    43   20   21 2
