@<TRIPOS>MOLECULE
*****
   47    50     0     0     0
SMALL
NO_CHARGES

@<TRIPOS>ATOM
      1 C1          2.9211   -4.1145   -0.6360 C.1       1 <0>         0.0000
      2 C2          4.0107   -6.5533   -3.2115 C.ar      1 <0>         0.0000
      3 C3          4.6910   -5.7351   -4.1232 C.ar      1 <0>         0.0000
      4 C4          3.4586   -5.9854   -2.0681 C.ar      1 <0>         0.0000
      5 C5          4.8205   -4.3715   -3.8812 C.ar      1 <0>         0.0000
      6 C6          4.7361   -1.3158   -3.4216 C.2       1 <0>         0.0000
      7 C7          4.7392   -0.1086   -2.6526 C.2       1 <0>         0.0000
      8 C8          3.5738   -4.6035   -1.8199 C.ar      1 <0>         0.0000
      9 C9          4.2693   -3.7690   -2.7327 C.ar      1 <0>         0.0000
     10 C10         4.4326   -2.3353   -2.5483 C.2       1 <0>         0.0000
     11 C11         4.4450   -0.4626   -1.3616 C.2       1 <0>         0.0000
     12 C12         0.8889    1.7645    1.8473 C.3       1 <0>         0.0000
     13 C13         1.2901    1.9347    0.3592 C.3       1 <0>         0.0000
     14 C14         0.6868   -0.7794    2.0555 C.3       1 <0>         0.0000
     15 C15         2.9615    0.3838    1.9509 C.3       1 <0>         0.0000
     16 C16         0.7636   -0.4642   -0.3866 C.3       1 <0>         0.0000
     17 C17         1.5100    0.4800    2.4270 C.3       1 <0>         0.0000
     18 C18         1.8367    0.6254   -0.2418 C.3       1 <0>         0.0000
     19 C19        -1.0065   -1.7327    0.6234 C.3       1 <0>         0.0000
     20 C20         4.2901    0.3076   -0.0898 C.3       1 <0>         0.0000
     21 N1          2.3421   -3.8158    0.3302 N.1       1 <0>         0.0000
     22 N2         -0.0687   -0.6304    0.8059 N.3       1 <0>         0.0000
     23 N3          2.9896    0.1044    0.5189 N.3       1 <0>         0.0000
     24 O1          4.2591   -1.8157   -1.2916 O.3       1 <0>         0.0000
     25 H1          3.9145   -7.6200   -3.3913 H         1 <0>         0.0000
     26 H2          5.1328   -6.1657   -5.0178 H         1 <0>         0.0000
     27 H3          2.9213   -6.5994   -1.3519 H         1 <0>         0.0000
     28 H4          5.3770   -3.7553   -4.5805 H         1 <0>         0.0000
     29 H5          4.9023   -1.4090   -4.4864 H         1 <0>         0.0000
     30 H6          4.9233    0.8963   -3.0094 H         1 <0>         0.0000
     31 H7          1.2419    2.6261    2.4261 H         1 <0>         0.0000
     32 H8         -0.1980    1.7224    1.9458 H         1 <0>         0.0000
     33 H9          0.4387    2.2807   -0.2358 H         1 <0>         0.0000
     34 H10         2.0702    2.7005    0.2666 H         1 <0>         0.0000
     35 H11         1.3447   -1.6647    2.0377 H         1 <0>         0.0000
     36 H12        -0.0583   -0.9454    2.8421 H         1 <0>         0.0000
     37 H13         3.4773    1.3306    2.2064 H         1 <0>         0.0000
     38 H14         3.4905   -0.4226    2.4761 H         1 <0>         0.0000
     39 H15         0.0925   -0.1942   -1.2135 H         1 <0>         0.0000
     40 H16         1.2813   -1.3975   -0.6632 H         1 <0>         0.0000
     41 H17         1.5302    0.5498    3.5205 H         1 <0>         0.0000
     42 H18         2.1906    0.8314   -1.2576 H         1 <0>         0.0000
     43 H19        -1.6081   -1.5566   -0.2755 H         1 <0>         0.0000
     44 H20        -1.6881   -1.7851    1.4796 H         1 <0>         0.0000
     45 H21        -0.5064   -2.7118    0.5170 H         1 <0>         0.0000
     46 H22         5.0477   -0.0371    0.6251 H         1 <0>         0.0000
     47 H23         4.5229    1.3678   -0.3091 H         1 <0>         0.0000
@<TRIPOS>BOND
     1    1    8 1
     2    1   21 3
     3    2    3 ar
     4    2    4 ar
     5    2   25 1
     6    3    5 ar
     7    3   26 1
     8    4    8 ar
     9    4   27 1
    10    5    9 ar
    11    5   28 1
    12    6    7 1
    13    6   10 2
    14    6   29 1
    15    7   11 2
    16    7   30 1
    17    8    9 ar
    18    9   10 1
    19   10   24 1
    20   11   20 1
    21   11   24 1
    22   12   13 1
    23   12   17 1
    24   12   31 1
    25   12   32 1
    26   13   18 1
    27   13   33 1
    28   13   34 1
    29   14   17 1
    30   14   22 1
    31   14   35 1
    32   14   36 1
    33   15   17 1
    34   15   23 1
    35   15   37 1
    36   15   38 1
    37   16   18 1
    38   16   22 1
    39   16   39 1
    40   16   40 1
    41   17   41 1
    42   18   23 1
    43   18   42 1
    44   19   22 1
    45   19   43 1
    46   19   44 1
    47   19   45 1
    48   20   23 1
    49   20   46 1
    50   20   47 1
