@<TRIPOS>MOLECULE
*****
   39    42     0     0     0
SMALL
NO_CHARGES

@<TRIPOS>ATOM
      1 C1          2.3163   -0.7991    7.4852 C.ar      1 <0>         0.0000
      2 C2         -4.9165   -0.6865   -1.2799 C.ar      1 <0>         0.0000
      3 C3          2.7224   -1.2239    6.2363 C.ar      1 <0>         0.0000
      4 C4         -3.6215   -0.8115   -0.7742 C.ar      1 <0>         0.0000
      5 C5          1.3675    0.2436    7.6188 C.ar      1 <0>         0.0000
      6 C6          1.9934   -0.3518    2.6716 C.ar      1 <0>         0.0000
      7 C7         -5.1450    0.2212   -2.3180 C.ar      1 <0>         0.0000
      8 C8         -2.9440    0.8485   -2.3552 C.ar      1 <0>         0.0000
      9 C9          2.1874   -0.6110    5.0751 C.ar      1 <0>         0.0000
     10 C10        -2.5950   -0.0299   -1.3174 C.ar      1 <0>         0.0000
     11 C11         1.2284    0.4446    5.1775 C.ar      1 <0>         0.0000
     12 C12         2.5568   -0.9960    3.7519 C.ar      1 <0>         0.0000
     13 C13         0.8487    0.8357    6.4915 C.ar      1 <0>         0.0000
     14 C14         1.0528    0.6867    2.9022 C.ar      1 <0>         0.0000
     15 C15        -0.8831   -0.4110    0.6572 C.3       1 <0>         0.0000
     16 C16        -0.3339    1.1561   -0.6443 C.3       1 <0>         0.0000
     17 C17        -1.1741   -0.1350   -0.8407 C.3       1 <0>         0.0000
     18 C18         0.4554    1.4259    1.7212 C.3       1 <0>         0.0000
     19 N1         -4.1798    0.9821   -2.8537 N.ar      1 <0>         0.0000
     20 N2          0.6702    1.0746    4.1054 N.ar      1 <0>         0.0000
     21 N3          0.2440    0.5516    0.5792 N.3       1 <0>         0.0000
     22 O1          3.4687   -2.0045    3.6351 O.3       1 <0>         0.0000
     23 F1         -0.0555    1.8280    6.6270 F         1 <0>         0.0000
     24 H1          2.7226   -1.2626    8.3797 H         1 <0>         0.0000
     25 H2         -5.7360   -1.2760   -0.8783 H         1 <0>         0.0000
     26 H3          3.4486   -2.0219    6.1261 H         1 <0>         0.0000
     27 H4         -3.4124   -1.5064    0.0361 H         1 <0>         0.0000
     28 H5          1.0402    0.5867    8.5956 H         1 <0>         0.0000
     29 H6          2.2374   -0.6180    1.6460 H         1 <0>         0.0000
     30 H7         -6.1432    0.3451   -2.7354 H         1 <0>         0.0000
     31 H8         -2.1807    1.4824   -2.8069 H         1 <0>         0.0000
     32 H9         -1.6991   -0.0551    1.3058 H         1 <0>         0.0000
     33 H10        -0.6016   -1.4260    0.9560 H         1 <0>         0.0000
     34 H11         0.3979    1.4249   -1.4132 H         1 <0>         0.0000
     35 H12        -0.9778    2.0240   -0.4319 H         1 <0>         0.0000
     36 H13        -0.6216   -0.8459   -1.4641 H         1 <0>         0.0000
     37 H14        -0.4690    1.9195    2.0629 H         1 <0>         0.0000
     38 H15         1.1518    2.2179    1.4139 H         1 <0>         0.0000
     39 H16         3.6409   -2.1668    2.6930 H         1 <0>         0.0000
@<TRIPOS>BOND
     1    1    3 ar
     2    1    5 ar
     3    1   24 1
     4    2    4 ar
     5    2    7 ar
     6    2   25 1
     7    3    9 ar
     8    3   26 1
     9    4   10 ar
    10    4   27 1
    11    5   13 ar
    12    5   28 1
    13    6   12 ar
    14    6   14 ar
    15    6   29 1
    16    7   19 ar
    17    7   30 1
    18    8   10 ar
    19    8   19 ar
    20    8   31 1
    21    9   11 ar
    22    9   12 ar
    23   10   17 1
    24   11   13 ar
    25   11   20 ar
    26   12   22 1
    27   13   23 1
    28   14   18 1
    29   14   20 ar
    30   15   17 1
    31   15   21 1
    32   15   32 1
    33   15   33 1
    34   16   17 1
    35   16   21 1
    36   16   34 1
    37   16   35 1
    38   17   36 1
    39   18   21 1
    40   18   37 1
    41   18   38 1
    42   22   39 1
