@<TRIPOS>MOLECULE
*****
   39    40     0     0     0
SMALL
NO_CHARGES

@<TRIPOS>ATOM
      1 C1          1.9263    2.7311    3.8669 C.2       1 <0>         0.0000
      2 C2          1.8506    1.5384    3.1943 C.2       1 <0>         0.0000
      3 C3          1.3395    1.4491    5.5989 C.2       1 <0>         0.0000
      4 C4         -0.2678    1.0869    1.1090 C.3       1 <0>         0.0000
      5 C5          1.3222   -0.1280   -0.1474 C.3       1 <0>         0.0000
      6 C6         -0.9729    0.4979   -0.1355 C.3       1 <0>         0.0000
      7 C7         -0.0528   -0.6629   -0.5856 C.3       1 <0>         0.0000
      8 C8          0.9693    1.0673    7.0015 C.3       1 <0>         0.0000
      9 C9         -2.4446    0.1513    0.0776 C.3       1 <0>         0.0000
     10 C10        -0.3633   -2.0035    0.0827 C.3       1 <0>         0.0000
     11 C11         3.7621    4.4563    3.6643 C.3       1 <0>         0.0000
     12 C12         2.3183    4.0688    3.3000 C.3       1 <0>         0.0000
     13 C13         2.1137    1.2162    1.7522 C.3       1 <0>         0.0000
     14 N1          1.6399    2.6611    5.2248 N.2       1 <0>         0.0000
     15 N2          1.0454    0.4139    1.1787 N.3       1 <0>         0.0000
     16 O1         -0.1687   -0.7742   -2.0120 O.3       1 <0>         0.0000
     17 S1          1.3789    0.2677    4.3002 S.3       1 <0>         0.0000
     18 H1         -0.1574    2.1789    1.0119 H         1 <0>         0.0000
     19 H2         -0.8299    0.9020    2.0311 H         1 <0>         0.0000
     20 H3          2.0942   -0.9052   -0.0937 H         1 <0>         0.0000
     21 H4          1.6500    0.6376   -0.8749 H         1 <0>         0.0000
     22 H5         -0.9096    1.2280   -0.9497 H         1 <0>         0.0000
     23 H6         -0.0392    0.6426    7.0469 H         1 <0>         0.0000
     24 H7          1.6616    0.3228    7.4088 H         1 <0>         0.0000
     25 H8          1.0037    1.9605    7.6283 H         1 <0>         0.0000
     26 H9         -2.5797   -0.5419    0.9144 H         1 <0>         0.0000
     27 H10        -2.8721   -0.3032   -0.8219 H         1 <0>         0.0000
     28 H11        -3.0222    1.0548    0.3024 H         1 <0>         0.0000
     29 H12        -1.3638   -2.3519   -0.1868 H         1 <0>         0.0000
     30 H13        -0.2940   -1.9218    1.1706 H         1 <0>         0.0000
     31 H14         0.3606   -2.7634   -0.2389 H         1 <0>         0.0000
     32 H15         3.8928    4.4653    4.7504 H         1 <0>         0.0000
     33 H16         4.0088    5.4516    3.2790 H         1 <0>         0.0000
     34 H17         4.4761    3.7398    3.2439 H         1 <0>         0.0000
     35 H18         2.1973    4.0673    2.2126 H         1 <0>         0.0000
     36 H19         1.6292    4.8210    3.6995 H         1 <0>         0.0000
     37 H20         2.2665    2.1612    1.1991 H         1 <0>         0.0000
     38 H21         3.0466    0.6453    1.6622 H         1 <0>         0.0000
     39 H22         0.2878   -1.5847   -2.2882 H         1 <0>         0.0000
@<TRIPOS>BOND
     1    1    2 2
     2    1   12 1
     3    1   14 1
     4    2   13 1
     5    2   17 1
     6    3    8 1
     7    3   14 2
     8    3   17 1
     9    4    6 1
    10    4   15 1
    11    4   18 1
    12    4   19 1
    13    5    7 1
    14    5   15 1
    15    5   20 1
    16    5   21 1
    17    6    7 1
    18    6    9 1
    19    6   22 1
    20    7   10 1
    21    7   16 1
    22    8   23 1
    23    8   24 1
    24    8   25 1
    25    9   26 1
    26    9   27 1
    27    9   28 1
    28   10   29 1
    29   10   30 1
    30   10   31 1
    31   11   12 1
    32   11   32 1
    33   11   33 1
    34   11   34 1
    35   12   35 1
    36   12   36 1
    37   13   15 1
    38   13   37 1
    39   13   38 1
    40   16   39 1
