@<TRIPOS>MOLECULE
*****
   21    22     0     0     0
SMALL
NO_CHARGES

@<TRIPOS>ATOM
      1 C1          0.2125    3.7343    1.9901 C.ar      1 <0>         0.0000
      2 C2          0.5237    2.6764    1.1268 C.ar      1 <0>         0.0000
      3 C3         -0.4693    3.5044    3.1899 C.ar      1 <0>         0.0000
      4 C4         -0.5545    1.1248    2.6316 C.ar      1 <0>         0.0000
      5 C5          0.1336    1.3641    1.4234 C.ar      1 <0>         0.0000
      6 C6         -0.8542    2.1921    3.4773 C.ar      1 <0>         0.0000
      7 C7          0.7768    0.4048   -0.9701 C.3       1 <0>         0.0000
      8 C8         -0.3043   -0.6654   -1.2657 C.3       1 <0>         0.0000
      9 C9          0.4456    0.1880    0.5292 C.3       1 <0>         0.0000
     10 N1         -0.7254   -0.6941    0.1754 N.3       1 <0>         0.0000
     11 I1         -1.3508    1.6951    5.6331 I         1 <0>         0.0000
     12 H1          0.5143    4.7476    1.7366 H         1 <0>         0.0000
     13 H2          1.0830    2.8818    0.2183 H         1 <0>         0.0000
     14 H3         -0.6970    4.3214    3.8665 H         1 <0>         0.0000
     15 H4         -0.8346    0.1092    2.8955 H         1 <0>         0.0000
     16 H5          1.8010    0.1807   -1.2803 H         1 <0>         0.0000
     17 H6          0.4986    1.3959   -1.3378 H         1 <0>         0.0000
     18 H7         -1.0924   -0.3722   -1.9661 H         1 <0>         0.0000
     19 H8          0.0967   -1.6351   -1.5771 H         1 <0>         0.0000
     20 H9          1.2070   -0.4306    1.0212 H         1 <0>         0.0000
     21 H10        -1.5902   -0.1675    0.2920 H         1 <0>         0.0000
@<TRIPOS>BOND
     1    1    2 ar
     2    1    3 ar
     3    1   12 1
     4    2    5 ar
     5    2   13 1
     6    3    6 ar
     7    3   14 1
     8    4    5 ar
     9    4    6 ar
    10    4   15 1
    11    5    9 1
    12    6   11 1
    13    7    8 1
    14    7    9 1
    15    7   16 1
    16    7   17 1
    17    8   10 1
    18    8   18 1
    19    8   19 1
    20    9   10 1
    21    9   20 1
    22   10   21 1
