@<TRIPOS>MOLECULE
*****
   43    45     0     0     0
SMALL
NO_CHARGES

@<TRIPOS>ATOM
      1 C1          3.1745   -0.0775    6.2182 C.ar      1 <0>         0.0000
      2 C2          2.1288    0.7912    6.5956 C.ar      1 <0>         0.0000
      3 C3          2.9444   -1.1079    5.3077 C.ar      1 <0>         0.0000
      4 C4          0.8421    0.6654    6.0688 C.ar      1 <0>         0.0000
      5 C5          1.6543   -1.2512    4.7899 C.ar      1 <0>         0.0000
      6 C6          0.6279   -0.3687    5.1523 C.ar      1 <0>         0.0000
      7 C7          1.0971   -2.2152    3.8276 C.2       1 <0>         0.0000
      8 C8         -1.8070   -1.3260    1.8868 C.2       1 <0>         0.0000
      9 C9         -0.7523    1.3061   -0.2734 C.3       1 <0>         0.0000
     10 C10        -1.6780    0.1039   -0.0836 C.3       1 <0>         0.0000
     11 C11         0.2498   -1.3441    0.4237 C.3       1 <0>         0.0000
     12 C12         1.2322   -0.1640    0.2737 C.3       1 <0>         0.0000
     13 C13         0.6544    0.8834   -0.7136 C.3       1 <0>         0.0000
     14 C14         1.6236    0.4045    1.6443 C.3       1 <0>         0.0000
     15 C15         1.5638    2.1032   -0.8881 C.3       1 <0>         0.0000
     16 C16        -1.2009   -2.4078    2.7978 C.3       1 <0>         0.0000
     17 N1         -0.5358   -0.6662    4.4249 N.pl3     1 <0>         0.0000
     18 N2         -0.2450   -1.8754    3.7448 N.am      1 <0>         0.0000
     19 N3         -1.0785   -0.8759    0.8302 N.am      1 <0>         0.0000
     20 O1          1.6386   -3.1098    3.1728 O.2       1 <0>         0.0000
     21 O2         -2.9382   -0.9097    2.1615 O.2       1 <0>         0.0000
     22 O3          0.4683    0.2528   -2.0040 O.3       1 <0>         0.0000
     23 H1          4.1635    0.0617    6.6451 H         1 <0>         0.0000
     24 H2          2.3308    1.5853    7.3097 H         1 <0>         0.0000
     25 H3          3.7325   -1.7910    5.0037 H         1 <0>         0.0000
     26 H4          0.0476    1.3505    6.3515 H         1 <0>         0.0000
     27 H5         -1.1761    1.9717   -1.0329 H         1 <0>         0.0000
     28 H6         -0.6838    1.8696    0.6624 H         1 <0>         0.0000
     29 H7         -2.6377    0.4047    0.3335 H         1 <0>         0.0000
     30 H8         -1.8524   -0.3828   -1.0499 H         1 <0>         0.0000
     31 H9          0.1530   -1.8578   -0.5399 H         1 <0>         0.0000
     32 H10         0.6482   -2.0543    1.1459 H         1 <0>         0.0000
     33 H11         2.1416   -0.5729   -0.1905 H         1 <0>         0.0000
     34 H12         0.7473    0.7129    2.2221 H         1 <0>         0.0000
     35 H13         2.2927    1.2639    1.5556 H         1 <0>         0.0000
     36 H14         2.1528   -0.3561    2.2221 H         1 <0>         0.0000
     37 H15         2.5892    1.7983   -1.1335 H         1 <0>         0.0000
     38 H16         1.6054    2.7200    0.0133 H         1 <0>         0.0000
     39 H17         1.1840    2.7206   -1.7076 H         1 <0>         0.0000
     40 H18        -0.6806   -3.2048    2.2637 H         1 <0>         0.0000
     41 H19        -2.0515   -2.8436    3.3304 H         1 <0>         0.0000
     42 H20        -1.4001   -0.7369    4.9615 H         1 <0>         0.0000
     43 H21         1.3437   -0.0027   -2.3372 H         1 <0>         0.0000
@<TRIPOS>BOND
     1    1    2 ar
     2    1    3 ar
     3    1   23 1
     4    2    4 ar
     5    2   24 1
     6    3    5 ar
     7    3   25 1
     8    4    6 ar
     9    4   26 1
    10    5    6 ar
    11    5    7 1
    12    6   17 1
    13    7   18 am
    14    7   20 2
    15    8   16 1
    16    8   19 am
    17    8   21 2
    18    9   10 1
    19    9   13 1
    20    9   27 1
    21    9   28 1
    22   10   19 1
    23   10   29 1
    24   10   30 1
    25   11   12 1
    26   11   19 1
    27   11   31 1
    28   11   32 1
    29   12   13 1
    30   12   14 1
    31   12   33 1
    32   13   15 1
    33   13   22 1
    34   14   34 1
    35   14   35 1
    36   14   36 1
    37   15   37 1
    38   15   38 1
    39   15   39 1
    40   16   18 1
    41   16   40 1
    42   16   41 1
    43   17   18 1
    44   17   42 1
    45   22   43 1
