@<TRIPOS>MOLECULE
*****
   43    45     0     0     0
SMALL
NO_CHARGES

@<TRIPOS>ATOM
      1 C1         -8.0463   -1.3153    3.1390 C.ar      1 <0>         0.0000
      2 C2         -7.2775   -2.2238    3.8951 C.ar      1 <0>         0.0000
      3 C3         -7.4450   -0.2077    2.5420 C.ar      1 <0>         0.0000
      4 C4         -5.9003   -2.0606    4.0614 C.ar      1 <0>         0.0000
      5 C5         -6.0704   -0.0324    2.7189 C.ar      1 <0>         0.0000
      6 C6         -5.3102   -0.9538    3.4450 C.ar      1 <0>         0.0000
      7 C7         -5.1583    1.0121    2.2329 C.2       1 <0>         0.0000
      8 C8         -2.5721    0.0712    0.8201 C.2       1 <0>         0.0000
      9 C9          0.2585   -0.9241   -1.3938 C.3       1 <0>         0.0000
     10 C10        -1.2288   -0.7534   -1.0407 C.3       1 <0>         0.0000
     11 C11        -0.3283    1.1003    0.3228 C.3       1 <0>         0.0000
     12 C12         1.0688    0.4744    0.5438 C.3       1 <0>         0.0000
     13 C13         1.1425   -0.9309   -0.1324 C.3       1 <0>         0.0000
     14 C14         2.1332    1.4783    0.0847 C.3       1 <0>         0.0000
     15 C15         2.5675   -1.3666   -0.4603 C.3       1 <0>         0.0000
     16 C16        -2.7123    0.9963    2.0491 C.3       1 <0>         0.0000
     17 N1         -3.9450   -0.5962    3.4226 N.pl3     1 <0>         0.0000
     18 N2         -3.9062    0.6957    2.8052 N.am      1 <0>         0.0000
     19 N3         -1.3655    0.0804    0.1678 N.am      1 <0>         0.0000
     20 O1         -5.3505    1.9742    1.4988 O.2       1 <0>         0.0000
     21 O2         -3.4976   -0.6554    0.4739 O.2       1 <0>         0.0000
     22 O3          0.6660   -1.9315    0.7925 O.3       1 <0>         0.0000
     23 H1         -9.1131   -1.4850    3.0245 H         1 <0>         0.0000
     24 H2         -7.7663   -3.0804    4.3519 H         1 <0>         0.0000
     25 H3         -8.0152    0.5090    1.9579 H         1 <0>         0.0000
     26 H4         -5.3135   -2.7775    4.6294 H         1 <0>         0.0000
     27 H5          0.3884   -1.8615   -1.9423 H         1 <0>         0.0000
     28 H6          0.5940   -0.1173   -2.0559 H         1 <0>         0.0000
     29 H7         -1.7847   -0.3017   -1.8717 H         1 <0>         0.0000
     30 H8         -1.6978   -1.7153   -0.8322 H         1 <0>         0.0000
     31 H9         -0.5740    1.7722    1.1438 H         1 <0>         0.0000
     32 H10        -0.3142    1.7187   -0.5863 H         1 <0>         0.0000
     33 H11         1.2078    0.2891    1.6154 H         1 <0>         0.0000
     34 H12         2.1041    1.6256   -1.0011 H         1 <0>         0.0000
     35 H13         3.1417    1.1585    0.3565 H         1 <0>         0.0000
     36 H14         1.9603    2.4554    0.5508 H         1 <0>         0.0000
     37 H15         3.2020   -1.3153    0.4295 H         1 <0>         0.0000
     38 H16         3.0098   -0.7478   -1.2452 H         1 <0>         0.0000
     39 H17         2.5520   -2.4048   -0.8035 H         1 <0>         0.0000
     40 H18        -2.8090    2.0345    1.7199 H         1 <0>         0.0000
     41 H19        -1.8392    0.9263    2.7039 H         1 <0>         0.0000
     42 H20        -3.5478   -0.5271    4.3602 H         1 <0>         0.0000
     43 H21        -0.2230   -1.6657    1.0814 H         1 <0>         0.0000
@<TRIPOS>BOND
     1    1    2 ar
     2    1    3 ar
     3    1   23 1
     4    2    4 ar
     5    2   24 1
     6    3    5 ar
     7    3   25 1
     8    4    6 ar
     9    4   26 1
    10    5    6 ar
    11    5    7 1
    12    6   17 1
    13    7   18 am
    14    7   20 2
    15    8   16 1
    16    8   19 am
    17    8   21 2
    18    9   10 1
    19    9   13 1
    20    9   27 1
    21    9   28 1
    22   10   19 1
    23   10   29 1
    24   10   30 1
    25   11   12 1
    26   11   19 1
    27   11   31 1
    28   11   32 1
    29   12   13 1
    30   12   14 1
    31   12   33 1
    32   13   15 1
    33   13   22 1
    34   14   34 1
    35   14   35 1
    36   14   36 1
    37   15   37 1
    38   15   38 1
    39   15   39 1
    40   16   18 1
    41   16   40 1
    42   16   41 1
    43   17   18 1
    44   17   42 1
    45   22   43 1
