@<TRIPOS>MOLECULE
*****
   47    50     0     0     0
SMALL
NO_CHARGES

@<TRIPOS>ATOM
      1 C1          2.1182   -3.5534   -0.7445 C.1       1 <0>         0.0000
      2 C2          4.2461   -6.5847   -0.9854 C.ar      1 <0>         0.0000
      3 C3          5.4636   -6.1315   -0.4601 C.ar      1 <0>         0.0000
      4 C4          3.1753   -5.7019   -1.0810 C.ar      1 <0>         0.0000
      5 C5          5.6024   -4.8097   -0.0491 C.ar      1 <0>         0.0000
      6 C6          5.6594   -1.9666    1.1826 C.2       1 <0>         0.0000
      7 C7          5.3372   -0.5744    1.2660 C.2       1 <0>         0.0000
      8 C8          3.3017   -4.3650   -0.6556 C.ar      1 <0>         0.0000
      9 C9          4.5341   -3.8948   -0.1329 C.ar      1 <0>         0.0000
     10 C10         4.7410   -2.5304    0.3266 C.2       1 <0>         0.0000
     11 C11         4.2522   -0.3723    0.4539 C.2       1 <0>         0.0000
     12 C12        -0.1049    2.0717    1.8639 C.3       1 <0>         0.0000
     13 C13         0.5558    2.6254    0.5738 C.3       1 <0>         0.0000
     14 C14        -0.6547   -0.3337    1.1875 C.3       1 <0>         0.0000
     15 C15         1.7302    0.3786    1.7816 C.3       1 <0>         0.0000
     16 C16        -0.0485    0.6693   -0.9741 C.3       1 <0>         0.0000
     17 C17         0.2392    0.5833    2.0568 C.3       1 <0>         0.0000
     18 C18         1.0805    1.4945   -0.3324 C.3       1 <0>         0.0000
     19 C19        -2.1284   -0.5019   -0.7145 C.3       1 <0>         0.0000
     20 C20         3.4330    0.8302    0.1050 C.3       1 <0>         0.0000
     21 N1          1.1030   -2.9888   -0.8366 N.1       1 <0>         0.0000
     22 N2         -1.1206    0.3126   -0.0439 N.3       1 <0>         0.0000
     23 N3          2.0257    0.6079    0.3695 N.3       1 <0>         0.0000
     24 O1          3.8863   -1.5570   -0.1224 O.3       1 <0>         0.0000
     25 H1          4.1359   -7.6131   -1.3163 H         1 <0>         0.0000
     26 H2          6.3102   -6.8085   -0.3848 H         1 <0>         0.0000
     27 H3          2.2207   -6.0339   -1.4772 H         1 <0>         0.0000
     28 H4          6.5606   -4.4635    0.3258 H         1 <0>         0.0000
     29 H5          6.4433   -2.4866    1.7169 H         1 <0>         0.0000
     30 H6          5.8329    0.1795    1.8632 H         1 <0>         0.0000
     31 H7          0.2529    2.6356    2.7334 H         1 <0>         0.0000
     32 H8         -1.1896    2.1919    1.8165 H         1 <0>         0.0000
     33 H9         -0.1515    3.2437    0.0117 H         1 <0>         0.0000
     34 H10         1.4033    3.2711    0.8339 H         1 <0>         0.0000
     35 H11        -0.1290   -1.2819    0.9834 H         1 <0>         0.0000
     36 H12        -1.5553   -0.5798    1.7623 H         1 <0>         0.0000
     37 H13         2.3060    1.0659    2.4332 H         1 <0>         0.0000
     38 H14         2.0351   -0.6408    2.0513 H         1 <0>         0.0000
     39 H15        -0.5058    1.2645   -1.7761 H         1 <0>         0.0000
     40 H16         0.4146   -0.2201   -1.4332 H         1 <0>         0.0000
     41 H17         0.0681    0.3074    3.1036 H         1 <0>         0.0000
     42 H18         1.6298    1.9458   -1.1655 H         1 <0>         0.0000
     43 H19        -2.5138    0.0369   -1.5874 H         1 <0>         0.0000
     44 H20        -2.9678   -0.6855   -0.0347 H         1 <0>         0.0000
     45 H21        -1.7380   -1.4769   -1.0561 H         1 <0>         0.0000
     46 H22         3.8641    1.6855    0.6632 H         1 <0>         0.0000
     47 H23         3.5565    1.0445   -0.9630 H         1 <0>         0.0000
@<TRIPOS>BOND
     1    1    8 1
     2    1   21 3
     3    2    3 ar
     4    2    4 ar
     5    2   25 1
     6    3    5 ar
     7    3   26 1
     8    4    8 ar
     9    4   27 1
    10    5    9 ar
    11    5   28 1
    12    6    7 1
    13    6   10 2
    14    6   29 1
    15    7   11 2
    16    7   30 1
    17    8    9 ar
    18    9   10 1
    19   10   24 1
    20   11   20 1
    21   11   24 1
    22   12   13 1
    23   12   17 1
    24   12   31 1
    25   12   32 1
    26   13   18 1
    27   13   33 1
    28   13   34 1
    29   14   17 1
    30   14   22 1
    31   14   35 1
    32   14   36 1
    33   15   17 1
    34   15   23 1
    35   15   37 1
    36   15   38 1
    37   16   18 1
    38   16   22 1
    39   16   39 1
    40   16   40 1
    41   17   41 1
    42   18   23 1
    43   18   42 1
    44   19   22 1
    45   19   43 1
    46   19   44 1
    47   19   45 1
    48   20   23 1
    49   20   46 1
    50   20   47 1
