@<TRIPOS>MOLECULE
*****
   32    33     0     0     0
SMALL
NO_CHARGES

@<TRIPOS>ATOM
      1 C1          0.0834   -5.2530    0.4065 C.2       1 <0>         0.0000
      2 C2         -0.3893   -1.0765   -0.5830 C.2       1 <0>         0.0000
      3 C3         -0.1858   -6.0090    1.5943 C.2       1 <0>         0.0000
      4 C4          0.3268   -1.4201   -1.7691 C.2       1 <0>         0.0000
      5 C5         -0.1471   -2.0928    0.3529 C.2       1 <0>         0.0000
      6 C6         -0.8913   -5.6498   -0.4705 C.2       1 <0>         0.0000
      7 C7          0.5572   -5.9941    2.8951 C.3       1 <0>         0.0000
      8 C8          0.4269   -0.7001   -3.0754 C.3       1 <0>         0.0000
      9 C9         -0.6156   -2.3150    1.7531 C.3       1 <0>         0.0000
     10 C10        -1.2327   -5.2558   -1.8665 C.3       1 <0>         0.0000
     11 C11         1.1729   -4.2431    0.1857 C.3       1 <0>         0.0000
     12 N1          0.9611   -2.5723   -1.5772 N.2       1 <0>         0.0000
     13 N2         -1.2312   -6.7933    1.4399 N.2       1 <0>         0.0000
     14 N3          0.6695   -2.9541   -0.2928 N.pl3     1 <0>         0.0000
     15 N4         -1.2010    0.0818   -0.3882 N.pl3     1 <0>         0.0000
     16 O1         -1.7999    0.2132    0.6933 O.3       1 <0>         0.0000
     17 O2         -1.2669    0.8996   -1.3195 O.2       1 <0>         0.0000
     18 O3         -1.6852   -6.5639    0.1276 O.3       1 <0>         0.0000
     19 H1          0.5450   -4.9950    3.3439 H         1 <0>         0.0000
     20 H2          0.0948   -6.6920    3.5957 H         1 <0>         0.0000
     21 H3          1.6036   -6.2836    2.7544 H         1 <0>         0.0000
     22 H4          0.8567    0.2959   -2.9395 H         1 <0>         0.0000
     23 H5          1.0542   -1.2786   -3.7570 H         1 <0>         0.0000
     24 H6         -0.5619   -0.5559   -3.5192 H         1 <0>         0.0000
     25 H7         -1.4581   -3.0152    1.7693 H         1 <0>         0.0000
     26 H8          0.1835   -2.7415    2.3660 H         1 <0>         0.0000
     27 H9         -0.9459   -1.3752    2.1909 H         1 <0>         0.0000
     28 H10        -1.4169   -6.1428   -2.4796 H         1 <0>         0.0000
     29 H11        -2.1417   -4.6444   -1.8817 H         1 <0>         0.0000
     30 H12        -0.4224   -4.6733   -2.3077 H         1 <0>         0.0000
     31 H13         1.7323   -4.0870    1.1125 H         1 <0>         0.0000
     32 H14         1.8850   -4.5662   -0.5762 H         1 <0>         0.0000
@<TRIPOS>BOND
     1    1    3 1
     2    1    6 2
     3    1   11 1
     4    2    4 1
     5    2    5 2
     6    2   15 1
     7    3    7 1
     8    3   13 2
     9    4    8 1
    10    4   12 2
    11    5    9 1
    12    5   14 1
    13    6   10 1
    14    6   18 1
    15    7   19 1
    16    7   20 1
    17    7   21 1
    18    8   22 1
    19    8   23 1
    20    8   24 1
    21    9   25 1
    22    9   26 1
    23    9   27 1
    24   10   28 1
    25   10   29 1
    26   10   30 1
    27   11   14 1
    28   11   31 1
    29   11   32 1
    30   12   14 1
    31   13   18 1
    32   15   16 1
    33   15   17 2
