@<TRIPOS>MOLECULE
*****
   43    45     0     0     0
SMALL
NO_CHARGES

@<TRIPOS>ATOM
      1 C1         -4.3963   -3.2127   -3.4225 C.ar      1 <0>         0.0000
      2 C2         -5.0174   -1.9995   -3.0586 C.ar      1 <0>         0.0000
      3 C3         -3.0369   -3.2477   -3.7298 C.ar      1 <0>         0.0000
      4 C4         -4.3024   -0.8025   -2.9775 C.ar      1 <0>         0.0000
      5 C5         -2.3187   -2.0504   -3.6675 C.ar      1 <0>         0.0000
      6 C6         -2.9383   -0.8550   -3.2808 C.ar      1 <0>         0.0000
      7 C7         -0.8975   -1.7588   -3.9159 C.2       1 <0>         0.0000
      8 C8          0.5410    0.9936   -2.1605 C.2       1 <0>         0.0000
      9 C9         -0.4350   -1.8489   -0.4832 C.3       1 <0>         0.0000
     10 C10         0.8425   -1.2675   -1.0997 C.3       1 <0>         0.0000
     11 C11         0.6272    0.7539    0.2583 C.3       1 <0>         0.0000
     12 C12        -0.6677    0.2388    0.9123 C.3       1 <0>         0.0000
     13 C13        -0.7213   -1.3127    0.9328 C.3       1 <0>         0.0000
     14 C14        -0.8705    0.8794    2.2884 C.3       1 <0>         0.0000
     15 C15         0.2242   -1.9333    1.9637 C.3       1 <0>         0.0000
     16 C16         0.4549    0.3421   -3.5514 C.3       1 <0>         0.0000
     17 N1         -1.9836    0.1728   -3.1961 N.pl3     1 <0>         0.0000
     18 N2         -0.7900   -0.3838   -3.7289 N.am      1 <0>         0.0000
     19 N3          0.7945    0.1955   -1.0844 N.am      1 <0>         0.0000
     20 O1          0.0449   -2.5057   -4.1819 O.2       1 <0>         0.0000
     21 O2          0.3615    2.2119   -2.0736 O.2       1 <0>         0.0000
     22 O3         -2.0333   -1.7490    1.3427 O.3       1 <0>         0.0000
     23 H1         -4.9873   -4.1231   -3.4622 H         1 <0>         0.0000
     24 H2         -6.0791   -1.9960   -2.8268 H         1 <0>         0.0000
     25 H3         -2.5367   -4.1689   -4.0144 H         1 <0>         0.0000
     26 H4         -4.7862    0.1243   -2.6815 H         1 <0>         0.0000
     27 H5         -1.2811   -1.5870   -1.1279 H         1 <0>         0.0000
     28 H6         -0.3758   -2.9418   -0.4588 H         1 <0>         0.0000
     29 H7          1.7190   -1.5795   -0.5190 H         1 <0>         0.0000
     30 H8          0.9857   -1.6475   -2.1093 H         1 <0>         0.0000
     31 H9          0.6059    1.8396    0.1722 H         1 <0>         0.0000
     32 H10         1.4996    0.4780    0.8636 H         1 <0>         0.0000
     33 H11        -1.4900    0.5630    0.2577 H         1 <0>         0.0000
     34 H12         0.0034    0.7364    2.9331 H         1 <0>         0.0000
     35 H13        -1.7387    0.4467    2.7927 H         1 <0>         0.0000
     36 H14        -1.0323    1.9578    2.1878 H         1 <0>         0.0000
     37 H15        -0.0684   -1.6419    2.9746 H         1 <0>         0.0000
     38 H16         1.2619   -1.6289    1.8042 H         1 <0>         0.0000
     39 H17         0.1713   -3.0237    1.8996 H         1 <0>         0.0000
     40 H18         1.2541   -0.3702   -3.7661 H         1 <0>         0.0000
     41 H19         0.5180    1.1651   -4.2682 H         1 <0>         0.0000
     42 H20        -2.2250    1.0471   -3.6625 H         1 <0>         0.0000
     43 H21        -2.6655   -1.4660    0.6615 H         1 <0>         0.0000
@<TRIPOS>BOND
     1    1    2 ar
     2    1    3 ar
     3    1   23 1
     4    2    4 ar
     5    2   24 1
     6    3    5 ar
     7    3   25 1
     8    4    6 ar
     9    4   26 1
    10    5    6 ar
    11    5    7 1
    12    6   17 1
    13    7   18 am
    14    7   20 2
    15    8   16 1
    16    8   19 am
    17    8   21 2
    18    9   10 1
    19    9   13 1
    20    9   27 1
    21    9   28 1
    22   10   19 1
    23   10   29 1
    24   10   30 1
    25   11   12 1
    26   11   19 1
    27   11   31 1
    28   11   32 1
    29   12   13 1
    30   12   14 1
    31   12   33 1
    32   13   15 1
    33   13   22 1
    34   14   34 1
    35   14   35 1
    36   14   36 1
    37   15   37 1
    38   15   38 1
    39   15   39 1
    40   16   18 1
    41   16   40 1
    42   16   41 1
    43   17   18 1
    44   17   42 1
    45   22   43 1
