@<TRIPOS>MOLECULE
*****
   43    45     0     0     0
SMALL
NO_CHARGES

@<TRIPOS>ATOM
      1 C1         -6.2834   -2.5068    2.7135 C.ar      1 <0>         0.0000
      2 C2         -5.5482   -3.6175    3.1784 C.ar      1 <0>         0.0000
      3 C3         -5.6891   -1.2482    2.6344 C.ar      1 <0>         0.0000
      4 C4         -4.2095   -3.5068    3.5587 C.ar      1 <0>         0.0000
      5 C5         -4.3538   -1.1265    3.0300 C.ar      1 <0>         0.0000
      6 C6         -3.6241   -2.2401    3.4655 C.ar      1 <0>         0.0000
      7 C7         -3.4599    0.0406    3.0786 C.2       1 <0>         0.0000
      8 C8          0.0508   -0.5214    2.7075 C.2       1 <0>         0.0000
      9 C9         -0.5887    0.9855   -0.4807 C.3       1 <0>         0.0000
     10 C10        -1.1998    0.0890    0.6026 C.3       1 <0>         0.0000
     11 C11         0.7687   -1.3747    0.5353 C.3       1 <0>         0.0000
     12 C12         1.4783   -0.4851   -0.4992 C.3       1 <0>         0.0000
     13 C13         0.4178    0.2423   -1.3693 C.3       1 <0>         0.0000
     14 C14         2.4866    0.4515    0.1827 C.3       1 <0>         0.0000
     15 C15         1.0434    1.1924   -2.3945 C.3       1 <0>         0.0000
     16 C16        -0.9913    0.2220    3.5630 C.3       1 <0>         0.0000
     17 N1         -2.2921   -1.8711    3.7222 N.pl3     1 <0>         0.0000
     18 N2         -2.2721   -0.4559    3.6066 N.am      1 <0>         0.0000
     19 N3         -0.1438   -0.5832    1.3633 N.am      1 <0>         0.0000
     20 O1         -3.6318    1.2065    2.7176 O.2       1 <0>         0.0000
     21 O2          1.0077   -1.0519    3.2820 O.2       1 <0>         0.0000
     22 O3         -0.3705   -0.7499   -2.0692 O.3       1 <0>         0.0000
     23 H1         -7.3202   -2.6394    2.4181 H         1 <0>         0.0000
     24 H2         -6.0335   -4.5884    3.2346 H         1 <0>         0.0000
     25 H3         -6.2356   -0.3768    2.2854 H         1 <0>         0.0000
     26 H4         -3.6467   -4.3716    3.8992 H         1 <0>         0.0000
     27 H5         -1.3912    1.3798   -1.1124 H         1 <0>         0.0000
     28 H6         -0.0910    1.8388   -0.0090 H         1 <0>         0.0000
     29 H7         -1.8292    0.6906    1.2533 H         1 <0>         0.0000
     30 H8         -1.8350   -0.6728    0.1367 H         1 <0>         0.0000
     31 H9          0.1822   -2.1453    0.0231 H         1 <0>         0.0000
     32 H10         1.4884   -1.8566    1.1956 H         1 <0>         0.0000
     33 H11         2.0395   -1.1539   -1.1690 H         1 <0>         0.0000
     34 H12         1.9914    1.1565    0.8568 H         1 <0>         0.0000
     35 H13         3.0654    1.0265   -0.5450 H         1 <0>         0.0000
     36 H14         3.1898   -0.1300    0.7863 H         1 <0>         0.0000
     37 H15         1.7958    0.6728   -3.0017 H         1 <0>         0.0000
     38 H16         1.5311    2.0475   -1.9190 H         1 <0>         0.0000
     39 H17         0.2642    1.5695   -3.0635 H         1 <0>         0.0000
     40 H18        -1.2006    1.2367    3.2166 H         1 <0>         0.0000
     41 H19        -0.5579    0.2806    4.5649 H         1 <0>         0.0000
     42 H20        -1.9211   -2.1705    4.6238 H         1 <0>         0.0000
     43 H21         0.2232   -1.2319   -2.6672 H         1 <0>         0.0000
@<TRIPOS>BOND
     1    1    2 ar
     2    1    3 ar
     3    1   23 1
     4    2    4 ar
     5    2   24 1
     6    3    5 ar
     7    3   25 1
     8    4    6 ar
     9    4   26 1
    10    5    6 ar
    11    5    7 1
    12    6   17 1
    13    7   18 am
    14    7   20 2
    15    8   16 1
    16    8   19 am
    17    8   21 2
    18    9   10 1
    19    9   13 1
    20    9   27 1
    21    9   28 1
    22   10   19 1
    23   10   29 1
    24   10   30 1
    25   11   12 1
    26   11   19 1
    27   11   31 1
    28   11   32 1
    29   12   13 1
    30   12   14 1
    31   12   33 1
    32   13   15 1
    33   13   22 1
    34   14   34 1
    35   14   35 1
    36   14   36 1
    37   15   37 1
    38   15   38 1
    39   15   39 1
    40   16   18 1
    41   16   40 1
    42   16   41 1
    43   17   18 1
    44   17   42 1
    45   22   43 1
