@<TRIPOS>MOLECULE
*****
   47    50     0     0     0
SMALL
NO_CHARGES

@<TRIPOS>ATOM
      1 C1          4.1136   -3.0283   -0.6655 C.1       1 <0>         0.0000
      2 C2          6.3722   -5.1023   -2.7547 C.ar      1 <0>         0.0000
      3 C3          6.7535   -4.2028   -3.7592 C.ar      1 <0>         0.0000
      4 C4          5.5173   -4.6725   -1.7452 C.ar      1 <0>         0.0000
      5 C5          6.2890   -2.8918   -3.7402 C.ar      1 <0>         0.0000
      6 C6          4.9186   -0.1215   -3.7949 C.2       1 <0>         0.0000
      7 C7          4.3460    1.0654   -3.2364 C.2       1 <0>         0.0000
      8 C8          5.0317   -3.3503   -1.7238 C.ar      1 <0>         0.0000
      9 C9          5.4202   -2.4298   -2.7314 C.ar      1 <0>         0.0000
     10 C10         4.9641   -1.0493   -2.7793 C.2       1 <0>         0.0000
     11 C11         4.0833    0.7943   -1.9188 C.2       1 <0>         0.0000
     12 C12        -0.3938    1.7249    0.7257 C.3       1 <0>         0.0000
     13 C13         0.0601    1.8503   -0.7516 C.3       1 <0>         0.0000
     14 C14         0.4368   -0.6179    1.3398 C.3       1 <0>         0.0000
     15 C15         2.0373    1.3668    1.1428 C.3       1 <0>         0.0000
     16 C16         0.6399   -0.6237   -1.1150 C.3       1 <0>         0.0000
     17 C17         0.6307    0.9075    1.5344 C.3       1 <0>         0.0000
     18 C18         1.1536    0.8240   -1.1057 C.3       1 <0>         0.0000
     19 C19        -0.5580   -2.3717    0.0126 C.3       1 <0>         0.0000
     20 C20         3.4910    1.5888   -0.7996 C.3       1 <0>         0.0000
     21 N1          3.3630   -2.8750    0.2127 N.1       1 <0>         0.0000
     22 N2         -0.1755   -0.9646    0.0517 N.3       1 <0>         0.0000
     23 N3          2.3301    0.9395   -0.2215 N.3       1 <0>         0.0000
     24 O1          4.4585   -0.4897   -1.6346 O.3       1 <0>         0.0000
     25 H1          6.7392   -6.1244   -2.7599 H         1 <0>         0.0000
     26 H2          7.4257   -4.5225   -4.5509 H         1 <0>         0.0000
     27 H3          5.2036   -5.3544   -0.9609 H         1 <0>         0.0000
     28 H4          6.6175   -2.1976   -4.5074 H         1 <0>         0.0000
     29 H5          5.2230   -0.2759   -4.8214 H         1 <0>         0.0000
     30 H6          4.1422    1.9981   -3.7459 H         1 <0>         0.0000
     31 H7         -0.4867    2.7230    1.1698 H         1 <0>         0.0000
     32 H8         -1.3730    1.2445    0.7833 H         1 <0>         0.0000
     33 H9         -0.7893    1.7262   -1.4312 H         1 <0>         0.0000
     34 H10         0.4657    2.8529   -0.9353 H         1 <0>         0.0000
     35 H11         1.3961   -1.1398    1.4953 H         1 <0>         0.0000
     36 H12        -0.2553   -0.9759    2.1106 H         1 <0>         0.0000
     37 H13         2.0919    2.4670    1.2614 H         1 <0>         0.0000
     38 H14         2.7893    0.9331    1.8154 H         1 <0>         0.0000
     39 H15         0.0105   -0.7716   -2.0032 H         1 <0>         0.0000
     40 H16         1.5195   -1.2814   -1.2115 H         1 <0>         0.0000
     41 H17         0.5034    1.1223    2.6014 H         1 <0>         0.0000
     42 H18         1.4993    1.0236   -2.1255 H         1 <0>         0.0000
     43 H19        -1.0794   -2.5835   -0.9277 H         1 <0>         0.0000
     44 H20        -1.2463   -2.5917    0.8361 H         1 <0>         0.0000
     45 H21         0.3055   -3.0562    0.0895 H         1 <0>         0.0000
     46 H22         4.2416    1.6931   -0.0061 H         1 <0>         0.0000
     47 H23         3.2916    2.6090   -1.1811 H         1 <0>         0.0000
@<TRIPOS>BOND
     1    1    8 1
     2    1   21 3
     3    2    3 ar
     4    2    4 ar
     5    2   25 1
     6    3    5 ar
     7    3   26 1
     8    4    8 ar
     9    4   27 1
    10    5    9 ar
    11    5   28 1
    12    6    7 1
    13    6   10 2
    14    6   29 1
    15    7   11 2
    16    7   30 1
    17    8    9 ar
    18    9   10 1
    19   10   24 1
    20   11   20 1
    21   11   24 1
    22   12   13 1
    23   12   17 1
    24   12   31 1
    25   12   32 1
    26   13   18 1
    27   13   33 1
    28   13   34 1
    29   14   17 1
    30   14   22 1
    31   14   35 1
    32   14   36 1
    33   15   17 1
    34   15   23 1
    35   15   37 1
    36   15   38 1
    37   16   18 1
    38   16   22 1
    39   16   39 1
    40   16   40 1
    41   17   41 1
    42   18   23 1
    43   18   42 1
    44   19   22 1
    45   19   43 1
    46   19   44 1
    47   19   45 1
    48   20   23 1
    49   20   46 1
    50   20   47 1
