@<TRIPOS>MOLECULE
*****
   39    42     0     0     0
SMALL
NO_CHARGES

@<TRIPOS>ATOM
      1 C1          5.1690   -3.3279    5.1191 C.ar      1 <0>         0.0000
      2 C2         -3.5876    1.4372   -2.4855 C.ar      1 <0>         0.0000
      3 C3          3.7986   -3.4315    4.9957 C.ar      1 <0>         0.0000
      4 C4         -2.2623    1.3288   -2.0621 C.ar      1 <0>         0.0000
      5 C5          5.8663   -2.2423    4.5348 C.ar      1 <0>         0.0000
      6 C6          1.0388   -1.4749    3.4004 C.ar      1 <0>         0.0000
      7 C7         -4.4527    0.3621   -2.2603 C.ar      1 <0>         0.0000
      8 C8         -2.7960   -0.8571   -1.2561 C.ar      1 <0>         0.0000
      9 C9          3.0800   -2.4435    4.2752 C.ar      1 <0>         0.0000
     10 C10        -1.8384    0.1542   -1.4282 C.ar      1 <0>         0.0000
     11 C11         3.7555   -1.3366    3.6719 C.ar      1 <0>         0.0000
     12 C12         1.6644   -2.4775    4.1125 C.ar      1 <0>         0.0000
     13 C13         5.1681   -1.2847    3.8383 C.ar      1 <0>         0.0000
     14 C14         1.8197   -0.4326    2.8321 C.ar      1 <0>         0.0000
     15 C15        -0.1314   -0.7891    0.3508 C.3       1 <0>         0.0000
     16 C16         0.3402    1.1516   -0.3189 C.3       1 <0>         0.0000
     17 C17        -0.4191   -0.0334   -0.9733 C.3       1 <0>         0.0000
     18 C18         1.1449    0.6391    2.0015 C.3       1 <0>         0.0000
     19 N1         -4.0720   -0.7717   -1.6553 N.ar      1 <0>         0.0000
     20 N2          3.1316   -0.3551    2.9641 N.ar      1 <0>         0.0000
     21 N3          0.9429    0.1896    0.6301 N.3       1 <0>         0.0000
     22 O1          1.0008   -3.5201    4.6900 O.3       1 <0>         0.0000
     23 F1          5.8390   -0.2532    3.2864 F         1 <0>         0.0000
     24 H1          5.7271   -4.0808    5.6682 H         1 <0>         0.0000
     25 H2         -3.9485    2.3357   -2.9786 H         1 <0>         0.0000
     26 H3          3.2578   -4.2588    5.4421 H         1 <0>         0.0000
     27 H4         -1.5649    2.1486   -2.2199 H         1 <0>         0.0000
     28 H5          6.9444   -2.1503    4.6256 H         1 <0>         0.0000
     29 H6         -0.0418   -1.4714    3.2732 H         1 <0>         0.0000
     30 H7         -5.4935    0.4135   -2.5765 H         1 <0>         0.0000
     31 H8         -2.5154   -1.7896   -0.7663 H         1 <0>         0.0000
     32 H9         -0.9834   -0.7038    1.0477 H         1 <0>         0.0000
     33 H10         0.1939   -1.8329    0.3002 H         1 <0>         0.0000
     34 H11         1.0620    1.7107   -0.9237 H         1 <0>         0.0000
     35 H12        -0.3578    1.8555    0.1650 H         1 <0>         0.0000
     36 H13         0.1839   -0.4586   -1.7820 H         1 <0>         0.0000
     37 H14         0.1879    0.9363    2.4738 H         1 <0>         0.0000
     38 H15         1.8026    1.5115    1.9788 H         1 <0>         0.0000
     39 H16         0.0500   -3.4315    4.5124 H         1 <0>         0.0000
@<TRIPOS>BOND
     1    1    3 ar
     2    1    5 ar
     3    1   24 1
     4    2    4 ar
     5    2    7 ar
     6    2   25 1
     7    3    9 ar
     8    3   26 1
     9    4   10 ar
    10    4   27 1
    11    5   13 ar
    12    5   28 1
    13    6   12 ar
    14    6   14 ar
    15    6   29 1
    16    7   19 ar
    17    7   30 1
    18    8   10 ar
    19    8   19 ar
    20    8   31 1
    21    9   11 ar
    22    9   12 ar
    23   10   17 1
    24   11   13 ar
    25   11   20 ar
    26   12   22 1
    27   13   23 1
    28   14   18 1
    29   14   20 ar
    30   15   17 1
    31   15   21 1
    32   15   32 1
    33   15   33 1
    34   16   17 1
    35   16   21 1
    36   16   34 1
    37   16   35 1
    38   17   36 1
    39   18   21 1
    40   18   37 1
    41   18   38 1
    42   22   39 1
