@<TRIPOS>MOLECULE
*****
   23    23     0     0     0
SMALL
NO_CHARGES

@<TRIPOS>ATOM
      1 C1          3.2951   -4.7295    2.9689 C.1       1 <0>         0.0000
      2 C2          2.0651   -2.0948   -0.2903 C.ar      1 <0>         0.0000
      3 C3          1.0643   -1.2541    0.1835 C.ar      1 <0>         0.0000
      4 C4          2.2197   -1.1548    2.3277 C.ar      1 <0>         0.0000
      5 C5          3.2423   -1.9905    1.8601 C.ar      1 <0>         0.0000
      6 C6          3.1442   -2.4413    0.5298 C.ar      1 <0>         0.0000
      7 C7          1.1688   -0.7968    1.4937 C.ar      1 <0>         0.0000
      8 C8          3.7231   -3.5692    3.7565 C.3       1 <0>         0.0000
      9 C9          4.2978   -2.4342    2.8688 C.3       1 <0>         0.0000
     10 N1          2.9548   -5.6282    2.3147 N.1       1 <0>         0.0000
     11 N2          4.6296   -1.3112    3.7628 N.3       1 <0>         0.0000
     12 N3          4.1721   -3.2877   -0.1094 N.pl3     1 <0>         0.0000
     13 O1          5.3505   -3.1526    0.2475 O.3       1 <0>         0.0000
     14 O2          3.8005   -4.0541   -0.9994 O.2       1 <0>         0.0000
     15 F1          0.2085    0.0214    1.9773 F         1 <0>         0.0000
     16 H1          2.0286   -2.4854   -1.3003 H         1 <0>         0.0000
     17 H2          0.2252   -0.9578   -0.4372 H         1 <0>         0.0000
     18 H3          2.2560   -0.7845    3.3466 H         1 <0>         0.0000
     19 H4          2.8713   -3.1908    4.3296 H         1 <0>         0.0000
     20 H5          4.4866   -3.8956    4.4715 H         1 <0>         0.0000
     21 H6          5.1639   -2.8261    2.3378 H         1 <0>         0.0000
     22 H7          5.0334   -0.5551    3.2106 H         1 <0>         0.0000
     23 H8          5.3566   -1.6061    4.4142 H         1 <0>         0.0000
@<TRIPOS>BOND
     1    1    8 1
     2    1   10 3
     3    2    3 ar
     4    2    6 ar
     5    2   16 1
     6    3    7 ar
     7    3   17 1
     8    4    5 ar
     9    4    7 ar
    10    4   18 1
    11    5    6 ar
    12    5    9 1
    13    6   12 1
    14    7   15 1
    15    8    9 1
    16    8   19 1
    17    8   20 1
    18    9   11 1
    19    9   21 1
    20   11   22 1
    21   11   23 1
    22   12   13 1
    23   12   14 2
