@<TRIPOS>MOLECULE
*****
   25    26     0     0     0
SMALL
NO_CHARGES

@<TRIPOS>ATOM
      1 C1         -3.6705    0.8178   -2.8416 C.ar      1 <0>         0.0000
      2 C2         -5.0115    0.4802   -3.0711 C.ar      1 <0>         0.0000
      3 C3         -2.7388   -0.1634   -2.4841 C.ar      1 <0>         0.0000
      4 C4         -5.4235   -0.8359   -2.9448 C.ar      1 <0>         0.0000
      5 C5         -3.1795   -1.4940   -2.3629 C.ar      1 <0>         0.0000
      6 C6         -4.5081   -1.8312   -2.5903 C.ar      1 <0>         0.0000
      7 C7          1.8447    3.0814   -1.1670 C.3       1 <0>         0.0000
      8 C8          1.1337    2.4000   -0.0036 C.3       1 <0>         0.0000
      9 C9          0.5484    1.3472   -1.9566 C.3       1 <0>         0.0000
     10 C10        -0.9317    1.3821   -2.3184 C.3       1 <0>         0.0000
     11 O1          1.0933    2.6202   -2.2988 O.3       1 <0>         0.0000
     12 O2          0.7716    1.1347   -0.5700 O.3       1 <0>         0.0000
     13 O3         -1.4175    0.0444   -2.2379 O.3       1 <0>         0.0000
     14 F1         -6.7103   -1.1857   -3.1606 F         1 <0>         0.0000
     15 F2         -2.3085   -2.4588   -2.0234 F         1 <0>         0.0000
     16 F3         -4.9047   -3.1079   -2.4682 F         1 <0>         0.0000
     17 H1         -3.3645    1.8512   -2.9481 H         1 <0>         0.0000
     18 H2         -5.7378    1.2371   -3.3486 H         1 <0>         0.0000
     19 H3          1.7947    4.1722   -1.1469 H         1 <0>         0.0000
     20 H4          2.8901    2.7570   -1.2459 H         1 <0>         0.0000
     21 H5          1.7689    2.2131    0.8645 H         1 <0>         0.0000
     22 H6          0.2414    2.9605    0.3071 H         1 <0>         0.0000
     23 H7          1.0542    0.5379   -2.4975 H         1 <0>         0.0000
     24 H8         -1.0417    1.7744   -3.3369 H         1 <0>         0.0000
     25 H9         -1.4653    2.0356   -1.6176 H         1 <0>         0.0000
@<TRIPOS>BOND
     1    1    2 ar
     2    1    3 ar
     3    1   17 1
     4    2    4 ar
     5    2   18 1
     6    3    5 ar
     7    3   13 1
     8    4    6 ar
     9    4   14 1
    10    5    6 ar
    11    5   15 1
    12    6   16 1
    13    7    8 1
    14    7   11 1
    15    7   19 1
    16    7   20 1
    17    8   12 1
    18    8   21 1
    19    8   22 1
    20    9   10 1
    21    9   12 1
    22    9   11 1
    23    9   23 1
    24   10   13 1
    25   10   24 1
    26   10   25 1
