@<TRIPOS>MOLECULE
*****
   21    21     0     0     0
SMALL
NO_CHARGES

@<TRIPOS>ATOM
      1 C1          1.8303   -0.3844    0.1294 C.ar      1 <0>         0.0000
      2 C2          0.5095   -0.6453    0.5033 C.ar      1 <0>         0.0000
      3 C3          2.8852   -0.9123    0.8765 C.ar      1 <0>         0.0000
      4 C4          0.2504   -1.4329    1.6271 C.ar      1 <0>         0.0000
      5 C5          2.6562   -1.7088    2.0069 C.ar      1 <0>         0.0000
      6 C6          1.3200   -1.9493    2.3601 C.ar      1 <0>         0.0000
      7 C7          5.1569   -2.0926    2.2299 C.2       1 <0>         0.0000
      8 C8          3.7914   -2.2791    2.8394 C.3       1 <0>         0.0000
      9 N1          5.9364   -1.0850    2.4261 N.2       1 <0>         0.0000
     10 N2          5.5704   -3.0620    1.3143 N.pl3     1 <0>         0.0000
     11 O1          5.3035   -0.1027    3.2421 O.3       1 <0>         0.0000
     12 Cl1         0.9515   -2.9317    3.7796 Cl        1 <0>         0.0000
     13 H1          2.0408    0.2300   -0.7417 H         1 <0>         0.0000
     14 H2         -0.3188   -0.2399   -0.0715 H         1 <0>         0.0000
     15 H3          3.9090   -0.7032    0.5836 H         1 <0>         0.0000
     16 H4         -0.7676   -1.6460    1.9375 H         1 <0>         0.0000
     17 H5          3.7825   -1.8062    3.8249 H         1 <0>         0.0000
     18 H6          3.6169   -3.3487    2.9995 H         1 <0>         0.0000
     19 H7          5.3358   -4.0134    1.5765 H         1 <0>         0.0000
     20 H8          6.5471   -2.9657    1.0510 H         1 <0>         0.0000
     21 H9          6.0065    0.5586    3.3387 H         1 <0>         0.0000
@<TRIPOS>BOND
     1    1    2 ar
     2    1    3 ar
     3    1   13 1
     4    2    4 ar
     5    2   14 1
     6    3    5 ar
     7    3   15 1
     8    4    6 ar
     9    4   16 1
    10    5    6 ar
    11    5    8 1
    12    6   12 1
    13    7    8 1
    14    7    9 2
    15    7   10 1
    16    8   17 1
    17    8   18 1
    18    9   11 1
    19   10   19 1
    20   10   20 1
    21   11   21 1
