@<TRIPOS>MOLECULE
*****
   38    40     0     0     0
SMALL
NO_CHARGES

@<TRIPOS>ATOM
      1 C1         -2.4930    1.9711   -9.9069 C.ar      1 <0>         0.0000
      2 C2         -3.8471    2.3201   -9.8727 C.ar      1 <0>         0.0000
      3 C3         -1.7662    1.9048   -8.7183 C.ar      1 <0>         0.0000
      4 C4         -4.4693    2.6174   -8.6583 C.ar      1 <0>         0.0000
      5 C5         -0.7327    1.5425   -4.3395 C.2       1 <0>         0.0000
      6 C6         -2.3811    2.1924   -7.4963 C.ar      1 <0>         0.0000
      7 C7         -3.7333    2.5641   -7.4722 C.ar      1 <0>         0.0000
      8 C8         -0.1060    2.7140   -4.8801 C.2       1 <0>         0.0000
      9 C9         -1.6840    1.2099   -5.2956 C.2       1 <0>         0.0000
     10 C10        -0.4732    0.8207   -3.1063 C.2       1 <0>         0.0000
     11 C11         2.0549    0.7762   -0.6418 C.3       1 <0>         0.0000
     12 C12         0.2364   -0.7981   -0.8668 C.3       1 <0>         0.0000
     13 C13         2.9811   -0.2434   -1.3085 C.3       1 <0>         0.0000
     14 C14         1.1971   -1.7800   -1.5449 C.3       1 <0>         0.0000
     15 C15         1.0012    3.5243   -4.2858 C.3       1 <0>         0.0000
     16 N1         -0.6348    3.0523   -6.0550 N.2       1 <0>         0.0000
     17 N2          0.4650    1.2001   -2.3043 N.2       1 <0>         0.0000
     18 N3         -1.6126    2.1248   -6.3045 N.pl3     1 <0>         0.0000
     19 N4          0.6678    0.5919   -1.0906 N.pl3     1 <0>         0.0000
     20 O1          2.5307   -1.5809   -1.0701 O.3       1 <0>         0.0000
     21 Cl1        -4.5071    2.9939   -5.9657 Cl        1 <0>         0.0000
     22 Cl2        -2.7802   -0.1204   -5.3401 Cl        1 <0>         0.0000
     23 H1         -2.0079    1.7468  -10.8523 H         1 <0>         0.0000
     24 H2         -4.4235    2.3684  -10.7924 H         1 <0>         0.0000
     25 H3         -0.7149    1.6340   -8.7138 H         1 <0>         0.0000
     26 H4         -5.5156    2.9035   -8.6244 H         1 <0>         0.0000
     27 H5         -1.1237   -0.0355   -2.9129 H         1 <0>         0.0000
     28 H6          2.0806    0.6444    0.4453 H         1 <0>         0.0000
     29 H7          2.3575    1.7970   -0.8841 H         1 <0>         0.0000
     30 H8         -0.7952   -0.9425   -1.1941 H         1 <0>         0.0000
     31 H9          0.2562   -0.9646    0.2149 H         1 <0>         0.0000
     32 H10         3.0236   -0.0498   -2.3913 H         1 <0>         0.0000
     33 H11         3.9939   -0.1851   -0.9003 H         1 <0>         0.0000
     34 H12         0.9362   -2.8142   -1.3040 H         1 <0>         0.0000
     35 H13         1.1654   -1.6556   -2.6373 H         1 <0>         0.0000
     36 H14         1.9002    2.9150   -4.1508 H         1 <0>         0.0000
     37 H15         1.2283    4.3691   -4.9405 H         1 <0>         0.0000
     38 H16         0.7227    3.8930   -3.2943 H         1 <0>         0.0000
@<TRIPOS>BOND
     1    1    2 ar
     2    1    3 ar
     3    1   23 1
     4    2    4 ar
     5    2   24 1
     6    3    6 ar
     7    3   25 1
     8    4    7 ar
     9    4   26 1
    10    5    8 1
    11    5    9 2
    12    5   10 1
    13    6    7 ar
    14    6   18 1
    15    7   21 1
    16    8   15 1
    17    8   16 2
    18    9   18 1
    19    9   22 1
    20   10   17 2
    21   10   27 1
    22   11   13 1
    23   11   19 1
    24   11   28 1
    25   11   29 1
    26   12   14 1
    27   12   19 1
    28   12   30 1
    29   12   31 1
    30   13   20 1
    31   13   32 1
    32   13   33 1
    33   14   20 1
    34   14   34 1
    35   14   35 1
    36   15   36 1
    37   15   37 1
    38   15   38 1
    39   16   18 1
    40   17   19 1
