@<TRIPOS>MOLECULE
*****
   30    31     0     0     0
SMALL
NO_CHARGES

@<TRIPOS>ATOM
      1 C1          1.4882    1.0885    1.1102 C.ar      1 <0>         0.0000
      2 C2          0.1958    0.6327    0.8608 C.ar      1 <0>         0.0000
      3 C3          1.7434    1.9019    2.2157 C.ar      1 <0>         0.0000
      4 C4         -0.8472    0.9882    1.7157 C.ar      1 <0>         0.0000
      5 C5          0.9287    3.0838    4.2034 C.ar      1 <0>         0.0000
      6 C6          0.7051    2.2697    3.0869 C.ar      1 <0>         0.0000
      7 C7         -0.6020    1.8063    2.8310 C.ar      1 <0>         0.0000
      8 C8         -0.1488    3.4025    5.0156 C.ar      1 <0>         0.0000
      9 C9         -1.6080    2.1925    3.7189 C.ar      1 <0>         0.0000
     10 C10         0.0314    8.1237    6.7478 C.3       1 <0>         0.0000
     11 C11         0.0690    4.2714    6.2095 C.3       1 <0>         0.0000
     12 C12         0.1621    6.6491    7.0940 C.3       1 <0>         0.0000
     13 C13        -0.1009    5.7623    5.8769 C.3       1 <0>         0.0000
     14 N1         -1.4124    2.9776    4.8022 N.ar      1 <0>         0.0000
     15 O1         -2.8994    1.7733    3.5229 O.3       1 <0>         0.0000
     16 H1          2.2993    0.8113    0.4432 H         1 <0>         0.0000
     17 H2         -0.0001    0.0001   -0.0001 H         1 <0>         0.0000
     18 H3          2.7607    2.2459    2.3909 H         1 <0>         0.0000
     19 H4         -1.8457    0.6171    1.4971 H         1 <0>         0.0000
     20 H5          1.9222    3.4604    4.4305 H         1 <0>         0.0000
     21 H6          0.7274    8.4026    5.9502 H         1 <0>         0.0000
     22 H7          0.2388    8.7514    7.6204 H         1 <0>         0.0000
     23 H8         -0.9843    8.3441    6.4044 H         1 <0>         0.0000
     24 H9         -0.6309    3.9998    7.0174 H         1 <0>         0.0000
     25 H10         1.0765    4.1076    6.6276 H         1 <0>         0.0000
     26 H11        -0.5465    6.4036    7.8936 H         1 <0>         0.0000
     27 H12         1.1693    6.4591    7.4827 H         1 <0>         0.0000
     28 H13        -1.1176    5.9424    5.5049 H         1 <0>         0.0000
     29 H14         0.5851    6.0388    5.0662 H         1 <0>         0.0000
     30 H15        -3.4662    2.1270    4.2217 H         1 <0>         0.0000
@<TRIPOS>BOND
     1    1    2 ar
     2    1    3 ar
     3    1   16 1
     4    2    4 ar
     5    2   17 1
     6    3    6 ar
     7    3   18 1
     8    4    7 ar
     9    4   19 1
    10    5    6 ar
    11    5    8 ar
    12    5   20 1
    13    6    7 ar
    14    7    9 ar
    15    8   11 1
    16    8   14 ar
    17    9   14 ar
    18    9   15 1
    19   10   12 1
    20   10   21 1
    21   10   22 1
    22   10   23 1
    23   11   13 1
    24   11   24 1
    25   11   25 1
    26   12   13 1
    27   12   26 1
    28   12   27 1
    29   13   28 1
    30   13   29 1
    31   15   30 1
