@<TRIPOS>MOLECULE
*****
   16    17     0     0     0
SMALL
NO_CHARGES

@<TRIPOS>ATOM
      1 C1          1.8851   -1.0363   -0.1124 C.ar      1 <0>         0.0000
      2 C2          2.9210   -1.6309    0.6081 C.ar      1 <0>         0.0000
      3 C3          0.8066   -0.4630    0.5610 C.ar      1 <0>         0.0000
      4 C4          2.8783   -1.6520    2.0022 C.ar      1 <0>         0.0000
      5 C5          0.7638   -0.4841    1.9551 C.ar      1 <0>         0.0000
      6 C6          1.7997   -1.0786    2.6757 C.ar      1 <0>         0.0000
      7 C7          1.7548   -1.1016    4.1437 C.2       1 <0>         0.0000
      8 N1          2.8462   -1.2875    4.9103 N.2       1 <0>         0.0000
      9 N2          0.6190   -0.9382    4.8484 N.2       1 <0>         0.0000
     10 N3          2.3630   -1.2375    6.1770 N.2       1 <0>         0.0000
     11 N4          1.0250   -1.0276    6.1399 N.2       1 <0>         0.0000
     12 H1          1.9173   -1.0217   -1.1979 H         1 <0>         0.0000
     13 H2          3.7600   -2.0781    0.0833 H         1 <0>         0.0000
     14 H3         -0.0004   -0.0013   -0.0007 H         1 <0>         0.0000
     15 H4          3.6933   -2.1193    2.5495 H         1 <0>         0.0000
     16 H5         -0.0833   -0.0333    2.4663 H         1 <0>         0.0000
@<TRIPOS>BOND
     1    1    3 ar
     2    1    2 ar
     3    1   12 1
     4    2    4 ar
     5    2   13 1
     6    3    5 ar
     7    3   14 1
     8    4    6 ar
     9    4   15 1
    10    5    6 ar
    11    5   16 1
    12    6    7 1
    13    7    8 1
    14    7    9 2
    15    8   10 1
    16    9   11 1
    17   10   11 2
