@<TRIPOS>MOLECULE
*****
   58    60     0     0     0
SMALL
NO_CHARGES

@<TRIPOS>ATOM
      1 C1          0.4007   -4.3528    7.4136 C.ar      1 <0>         0.0000
      2 C2          0.5042   -4.3115    8.8045 C.ar      1 <0>         0.0000
      3 C3          6.3625   -5.3512   10.1330 C.ar      1 <0>         0.0000
      4 C4          5.2207   -5.5431   12.2889 C.ar      1 <0>         0.0000
      5 C5          5.3465   -6.0961    9.5342 C.ar      1 <0>         0.0000
      6 C6          4.2034   -6.2815   11.6820 C.ar      1 <0>         0.0000
      7 C7          1.5793   -1.9324    3.7171 C.ar      1 <0>         0.0000
      8 C8         -0.7789   -2.4063    3.5063 C.ar      1 <0>         0.0000
      9 C9          1.8421   -6.2671    7.3494 C.ar      1 <0>         0.0000
     10 C10         1.0627   -5.3321    6.6615 C.ar      1 <0>         0.0000
     11 C11         1.7911   -3.1870    4.2979 C.ar      1 <0>         0.0000
     12 C12        -0.5906   -3.6689    4.0837 C.ar      1 <0>         0.0000
     13 C13         0.7014   -4.0640    4.4847 C.ar      1 <0>         0.0000
     14 C14         1.2783   -5.2559    9.4875 C.ar      1 <0>         0.0000
     15 C15         0.2970   -1.5349    3.3329 C.ar      1 <0>         0.0000
     16 C16         6.2746   -5.0897   11.4995 C.ar      1 <0>         0.0000
     17 C17         4.2765   -6.5444   10.3132 C.ar      1 <0>         0.0000
     18 C18         1.9534   -6.2347    8.7403 C.ar      1 <0>         0.0000
     19 C19        -0.2783    1.9791    2.4485 C.2       1 <0>         0.0000
     20 C20         3.1900   -3.5843    4.7130 C.3       1 <0>         0.0000
     21 C21        -1.7879   -4.5798    4.2581 C.3       1 <0>         0.0000
     22 C22         0.9758    1.1455    4.4665 C.3       1 <0>         0.0000
     23 C23        -1.5125    0.6759    4.2383 C.3       1 <0>         0.0000
     24 C24         0.9318   -5.4072    5.1460 C.3       1 <0>         0.0000
     25 C25        -0.1760    0.8392    3.4922 C.3       1 <0>         0.0000
     26 O1         -0.0716    1.8572    1.2706 O.2       1 <0>         0.0000
     27 O2          3.5818   -8.2691    8.4356 O.2       1 <0>         0.0000
     28 O3          2.1955   -8.1626   10.5830 O.2       1 <0>         0.0000
     29 O4          1.4216   -5.2456   10.8460 O.3       1 <0>         0.0000
     30 O5         -0.6194    3.2025    2.9600 O.3       1 <0>         0.0000
     31 O6          0.1071   -0.3207    2.6942 O.3       1 <0>         0.0000
     32 F1          7.2597   -4.3677   12.0845 F         1 <0>         0.0000
     33 S1          2.9714   -7.4969    9.5305 S.o2      1 <0>         0.0000
     34 H1         -0.1923   -3.5974    6.9061 H         1 <0>         0.0000
     35 H2         -0.0180   -3.5388    9.3667 H         1 <0>         0.0000
     36 H3          7.2137   -4.9867    9.5667 H         1 <0>         0.0000
     37 H4          5.2080   -5.3209   13.3513 H         1 <0>         0.0000
     38 H5          5.3892   -6.3415    8.4776 H         1 <0>         0.0000
     39 H6          3.3623   -6.6572   12.2540 H         1 <0>         0.0000
     40 H7          2.4146   -1.2613    3.5409 H         1 <0>         0.0000
     41 H8         -1.7643   -2.0990    3.1686 H         1 <0>         0.0000
     42 H9          2.3853   -7.0399    6.8125 H         1 <0>         0.0000
     43 H10         3.2357   -3.8427    5.7762 H         1 <0>         0.0000
     44 H11         3.5417   -4.4596    4.1544 H         1 <0>         0.0000
     45 H12         3.8976   -2.7716    4.5317 H         1 <0>         0.0000
     46 H13        -1.7106   -5.4724    3.6268 H         1 <0>         0.0000
     47 H14        -1.8945   -4.9244    5.2924 H         1 <0>         0.0000
     48 H15        -2.7112   -4.0638    3.9833 H         1 <0>         0.0000
     49 H16         1.0828    0.3321    5.1882 H         1 <0>         0.0000
     50 H17         1.9161    1.2584    3.9211 H         1 <0>         0.0000
     51 H18         0.7942    2.0660    5.0304 H         1 <0>         0.0000
     52 H19        -1.4501   -0.1712    4.9256 H         1 <0>         0.0000
     53 H20        -2.3271    0.4958    3.5321 H         1 <0>         0.0000
     54 H21        -1.7628    1.5584    4.8366 H         1 <0>         0.0000
     55 H22         1.8365   -5.8736    4.7443 H         1 <0>         0.0000
     56 H23         0.1160   -6.0934    4.9018 H         1 <0>         0.0000
     57 H24         0.9132   -4.5060   11.2153 H         1 <0>         0.0000
     58 H25        -0.7672    3.1451    3.9180 H         1 <0>         0.0000
@<TRIPOS>BOND
     1    1    2 ar
     2    1   10 ar
     3    1   34 1
     4    2   14 ar
     5    2   35 1
     6    3    5 ar
     7    3   16 ar
     8    3   36 1
     9    4    6 ar
    10    4   16 ar
    11    4   37 1
    12    5   17 ar
    13    5   38 1
    14    6   17 ar
    15    6   39 1
    16    7   11 ar
    17    7   15 ar
    18    7   40 1
    19    8   12 ar
    20    8   15 ar
    21    8   41 1
    22    9   10 ar
    23    9   18 ar
    24    9   42 1
    25   10   24 1
    26   11   13 ar
    27   11   20 1
    28   12   13 ar
    29   12   21 1
    30   13   24 1
    31   14   18 ar
    32   14   29 1
    33   15   31 1
    34   16   32 1
    35   17   33 1
    36   18   33 1
    37   19   25 1
    38   19   26 2
    39   19   30 1
    40   20   43 1
    41   20   44 1
    42   20   45 1
    43   21   46 1
    44   21   47 1
    45   21   48 1
    46   22   25 1
    47   22   49 1
    48   22   50 1
    49   22   51 1
    50   23   25 1
    51   23   52 1
    52   23   53 1
    53   23   54 1
    54   24   55 1
    55   24   56 1
    56   25   31 1
    57   27   33 2
    58   28   33 2
    59   29   57 1
    60   30   58 1
