@<TRIPOS>MOLECULE
*****
   41    42     0     0     0
SMALL
NO_CHARGES

@<TRIPOS>ATOM
      1 C1          4.3256   -2.6616   -6.2323 C.2       1 <0>         0.0000
      2 C2          5.0475   -1.8461   -8.3329 C.2       1 <0>         0.0000
      3 C3          3.7814   -3.4315   -5.0663 C.2       1 <0>         0.0000
      4 C4          6.2781   -4.9437    0.3088 C.3       1 <0>         0.0000
      5 C5          5.0280   -5.7693   -0.0256 C.3       1 <0>         0.0000
      6 C6          6.8360   -4.2496   -0.9414 C.3       1 <0>         0.0000
      7 C7          3.9596   -4.9143   -0.7219 C.3       1 <0>         0.0000
      8 C8          5.7644   -3.3968   -1.6357 C.3       1 <0>         0.0000
      9 C9          4.5125   -4.2202   -1.9767 C.3       1 <0>         0.0000
     10 C10         3.9937   -1.2043  -12.2632 C.3       1 <0>         0.0000
     11 C11         3.1272   -0.1744  -10.0984 C.3       1 <0>         0.0000
     12 C12         3.4181   -3.3661   -2.6333 C.3       1 <0>         0.0000
     13 C13         3.8341   -1.3581  -10.7497 C.3       1 <0>         0.0000
     14 N1          4.8450   -1.4661   -6.1606 N.2       1 <0>         0.0000
     15 N2          5.2698   -0.9914   -7.3740 N.2       1 <0>         0.0000
     16 N3          3.8303   -2.7570   -3.8950 N.am      1 <0>         0.0000
     17 O1          3.3342   -4.5692   -5.2246 O.2       1 <0>         0.0000
     18 O2          6.2056   -0.1657  -10.1247 O.2       1 <0>         0.0000
     19 S1          4.3117   -3.3500   -7.8325 S.3       1 <0>         0.0000
     20 S2          5.5770   -1.5323  -10.0636 S.o       1 <0>         0.0000
     21 H1          7.0448   -5.5830    0.7620 H         1 <0>         0.0000
     22 H2          6.0193   -4.1834    1.0589 H         1 <0>         0.0000
     23 H3          5.3092   -6.6007   -0.6862 H         1 <0>         0.0000
     24 H4          4.6132   -6.2184    0.8843 H         1 <0>         0.0000
     25 H5          7.6984   -3.6260   -0.6789 H         1 <0>         0.0000
     26 H6          7.2012   -5.0100   -1.6452 H         1 <0>         0.0000
     27 H7          3.0952   -5.5342   -0.9894 H         1 <0>         0.0000
     28 H8          3.5947   -4.1504   -0.0194 H         1 <0>         0.0000
     29 H9          5.4768   -2.5675   -0.9717 H         1 <0>         0.0000
     30 H10         6.1797   -2.9457   -2.5446 H         1 <0>         0.0000
     31 H11         4.7943   -4.9969   -2.7004 H         1 <0>         0.0000
     32 H12         4.5476   -0.2914  -12.5011 H         1 <0>         0.0000
     33 H13         4.5182   -2.0560  -12.7081 H         1 <0>         0.0000
     34 H14         3.0055   -1.1338  -12.7287 H         1 <0>         0.0000
     35 H15         3.7433    0.7251  -10.1851 H         1 <0>         0.0000
     36 H16         2.9222   -0.3482   -9.0393 H         1 <0>         0.0000
     37 H17         2.1748    0.0072  -10.6074 H         1 <0>         0.0000
     38 H18         3.1127   -2.5581   -1.9598 H         1 <0>         0.0000
     39 H19         2.5401   -3.9839   -2.8389 H         1 <0>         0.0000
     40 H20         3.3424   -2.3085  -10.5115 H         1 <0>         0.0000
     41 H21         4.2719   -1.8445   -3.9068 H         1 <0>         0.0000
@<TRIPOS>BOND
     1    1    3 1
     2    1   14 2
     3    1   19 1
     4    2   15 2
     5    2   19 1
     6    2   20 1
     7    3   16 am
     8    3   17 2
     9    4    6 1
    10    4    5 1
    11    4   21 1
    12    4   22 1
    13    5    7 1
    14    5   23 1
    15    5   24 1
    16    6    8 1
    17    6   25 1
    18    6   26 1
    19    7    9 1
    20    7   27 1
    21    7   28 1
    22    8    9 1
    23    8   29 1
    24    8   30 1
    25    9   12 1
    26    9   31 1
    27   10   13 1
    28   10   32 1
    29   10   33 1
    30   10   34 1
    31   11   13 1
    32   11   35 1
    33   11   36 1
    34   11   37 1
    35   12   16 1
    36   12   38 1
    37   12   39 1
    38   13   20 1
    39   13   40 1
    40   14   15 1
    41   16   41 1
    42   18   20 2
