@<TRIPOS>MOLECULE
*****
   35    36     0     0     0
SMALL
NO_CHARGES

@<TRIPOS>ATOM
      1 C1          3.0038   -3.5786   -6.3171 C.ar      1 <0>         0.0000
      2 C2          2.1732   -2.8217   -7.1440 C.ar      1 <0>         0.0000
      3 C3          2.7572   -3.6131   -4.9414 C.ar      1 <0>         0.0000
      4 C4          1.1014   -2.1018   -6.6046 C.ar      1 <0>         0.0000
      5 C5          1.8673   -2.8376   -0.8078 C.2       1 <0>         0.0000
      6 C6          2.5032   -2.7506   -2.0228 C.2       1 <0>         0.0000
      7 C7          0.3235   -3.0516   -2.2883 C.2       1 <0>         0.0000
      8 C8          1.7002   -2.8893   -4.3871 C.ar      1 <0>         0.0000
      9 C9          0.8556   -2.1278   -5.2264 C.ar      1 <0>         0.0000
     10 C10        -0.0691    1.8436   -3.5070 C.3       1 <0>         0.0000
     11 C11        -2.2194    1.4740   -2.2296 C.3       1 <0>         0.0000
     12 C12        -1.8377    0.2170   -4.3750 C.3       1 <0>         0.0000
     13 C13        -0.8931   -0.4713   -5.3506 C.3       1 <0>         0.0000
     14 C14        -1.1606    0.8304   -3.1353 C.3       1 <0>         0.0000
     15 N1          0.5089   -3.0298   -0.9848 N.2       1 <0>         0.0000
     16 N2          1.5036   -2.8862   -2.9804 N.pl3     1 <0>         0.0000
     17 O1         -0.1589   -1.4592   -4.6132 O.3       1 <0>         0.0000
     18 H1          3.8306   -4.1457   -6.7341 H         1 <0>         0.0000
     19 H2          2.3496   -2.7897   -8.2157 H         1 <0>         0.0000
     20 H3          3.3816   -4.2108   -4.2838 H         1 <0>         0.0000
     21 H4          0.4643   -1.5190   -7.2597 H         1 <0>         0.0000
     22 H5          2.3048   -2.7649    0.1796 H         1 <0>         0.0000
     23 H6          3.5329   -2.5798   -2.3007 H         1 <0>         0.0000
     24 H7         -0.6209   -3.1804   -2.7966 H         1 <0>         0.0000
     25 H8         -0.4749    2.6548   -4.1253 H         1 <0>         0.0000
     26 H9          0.7541    1.3764   -4.0570 H         1 <0>         0.0000
     27 H10         0.3590    2.2958   -2.6061 H         1 <0>         0.0000
     28 H11        -2.7161    2.3113   -2.7362 H         1 <0>         0.0000
     29 H12        -1.7668    1.8614   -1.3106 H         1 <0>         0.0000
     30 H13        -2.9908    0.7510   -1.9415 H         1 <0>         0.0000
     31 H14        -2.3730    0.9984   -4.9319 H         1 <0>         0.0000
     32 H15        -2.5917   -0.5094   -4.0489 H         1 <0>         0.0000
     33 H16        -1.4601   -0.9546   -6.1568 H         1 <0>         0.0000
     34 H17        -0.1901    0.2388   -5.8025 H         1 <0>         0.0000
     35 H18        -0.6882    0.0133   -2.5786 H         1 <0>         0.0000
@<TRIPOS>BOND
     1    1    2 ar
     2    1    3 ar
     3    1   18 1
     4    2    4 ar
     5    2   19 1
     6    3    8 ar
     7    3   20 1
     8    4    9 ar
     9    4   21 1
    10    5    6 2
    11    5   15 1
    12    5   22 1
    13    6   16 1
    14    6   23 1
    15    7   15 2
    16    7   16 1
    17    7   24 1
    18    8    9 ar
    19    8   16 1
    20    9   17 1
    21   10   14 1
    22   10   25 1
    23   10   26 1
    24   10   27 1
    25   11   14 1
    26   11   28 1
    27   11   29 1
    28   11   30 1
    29   12   13 1
    30   12   14 1
    31   12   31 1
    32   12   32 1
    33   13   17 1
    34   13   33 1
    35   13   34 1
    36   14   35 1
