@<TRIPOS>MOLECULE
*****
   31    32     0     0     0
SMALL
NO_CHARGES

@<TRIPOS>ATOM
      1 C1         -0.0830   -2.9743    0.3925 C.ar      1 <0>         0.0000
      2 C2          3.4896   -2.6958   -0.6896 C.ar      1 <0>         0.0000
      3 C3         -0.4933   -1.6594    0.3016 C.ar      1 <0>         0.0000
      4 C4          3.9042   -4.0003   -0.5992 C.ar      1 <0>         0.0000
      5 C5          1.6988   -0.9863   -0.4489 C.ar      1 <0>         0.0000
      6 C6          1.6944   -4.6976    0.1523 C.ar      1 <0>         0.0000
      7 C7          2.1520   -2.3256   -0.3640 C.ar      1 <0>         0.0000
      8 C8          1.2471   -3.3484    0.0640 C.ar      1 <0>         0.0000
      9 C9          0.3967   -0.6371   -0.1243 C.ar      1 <0>         0.0000
     10 C10         2.9990   -5.0168   -0.1741 C.ar      1 <0>         0.0000
     11 C11         0.7386    1.7936    0.5936 C.2       1 <0>         0.0000
     12 C12        -0.1779    1.2689   -1.7063 C.3       1 <0>         0.0000
     13 C13         2.6924   -7.3404    0.2879 C.3       1 <0>         0.0000
     14 C14        -0.0838    0.7992   -0.2466 C.3       1 <0>         0.0000
     15 O1          0.8972    2.9555    0.2957 O.2       1 <0>         0.0000
     16 O2          1.2455    1.3117    1.7613 O.3       1 <0>         0.0000
     17 O3          3.5374   -6.2709   -0.1281 O.3       1 <0>         0.0000
     18 H1         -0.7824   -3.7399    0.7204 H         1 <0>         0.0000
     19 H2          4.1865   -1.9268   -1.0141 H         1 <0>         0.0000
     20 H3         -1.5172   -1.3957    0.5583 H         1 <0>         0.0000
     21 H4          4.9206   -4.2930   -0.8452 H         1 <0>         0.0000
     22 H5          2.4018   -0.2209   -0.7735 H         1 <0>         0.0000
     23 H6          0.9902   -5.4551    0.4787 H         1 <0>         0.0000
     24 H7          0.8053    1.2482   -2.1847 H         1 <0>         0.0000
     25 H8         -0.8452    0.6081   -2.2668 H         1 <0>         0.0000
     26 H9         -0.5563    2.2919   -1.7558 H         1 <0>         0.0000
     27 H10         3.3086   -8.2394    0.2530 H         1 <0>         0.0000
     28 H11         1.8374   -7.4568   -0.3892 H         1 <0>         0.0000
     29 H12         2.3307   -7.1849    1.3117 H         1 <0>         0.0000
     30 H13        -1.0899    0.8516    0.1914 H         1 <0>         0.0000
     31 H14         1.1128    0.3458    1.7913 H         1 <0>         0.0000
@<TRIPOS>BOND
     1    1    3 ar
     2    1    8 ar
     3    1   18 1
     4    2    4 ar
     5    2    7 ar
     6    2   19 1
     7    3    9 ar
     8    3   20 1
     9    4   10 ar
    10    4   21 1
    11    5    7 ar
    12    5    9 ar
    13    5   22 1
    14    6    8 ar
    15    6   10 ar
    16    6   23 1
    17    7    8 ar
    18    9   14 1
    19   10   17 1
    20   11   14 1
    21   11   15 2
    22   11   16 1
    23   12   14 1
    24   12   24 1
    25   12   25 1
    26   12   26 1
    27   13   17 1
    28   13   27 1
    29   13   28 1
    30   13   29 1
    31   14   30 1
    32   16   31 1
