@<TRIPOS>MOLECULE
*****
   29    30     0     0     0
SMALL
NO_CHARGES

@<TRIPOS>ATOM
      1 C1          1.4013   -6.8109    2.6799 C.ar      1 <0>         0.0000
      2 C2          2.2958   -6.2998    1.7369 C.ar      1 <0>         0.0000
      3 C3          0.1948   -6.1505    2.9172 C.ar      1 <0>         0.0000
      4 C4          1.9793   -5.1334    1.0361 C.ar      1 <0>         0.0000
      5 C5         -0.1547   -4.9832    2.2219 C.ar      1 <0>         0.0000
      6 C6          0.7652   -4.4923    1.2815 C.ar      1 <0>         0.0000
      7 C7         -0.9465   -2.4789    4.0087 C.cat     1 <0>         0.0000
      8 C8         -0.3546   -1.1055    5.7721 C.3       1 <0>         0.0000
      9 C9         -0.2102   -2.5903    6.1518 C.3       1 <0>         0.0000
     10 C10        -2.5274   -4.5232    1.3695 C.3       1 <0>         0.0000
     11 C11        -1.5125   -4.3603    2.5048 C.3       1 <0>         0.0000
     12 N1         -0.5836   -1.2289    4.3217 N.pl3     1 <0>         0.0000
     13 N2         -1.3972   -2.9122    2.8491 N.pl3     1 <0>         0.0000
     14 O1         -0.8251   -3.3144    5.0252 O.3       1 <0>         0.0000
     15 Cl1         0.4358   -3.0231    0.3485 Cl        1 <0>         0.0000
     16 H1          1.6407   -7.7167    3.2286 H         1 <0>         0.0000
     17 H2          3.2386   -6.8020    1.5416 H         1 <0>         0.0000
     18 H3         -0.4989   -6.5492    3.6538 H         1 <0>         0.0000
     19 H4          2.6642   -4.7256    0.2998 H         1 <0>         0.0000
     20 H5         -1.2077   -0.6250    6.2594 H         1 <0>         0.0000
     21 H6          0.5533   -0.5361    5.9751 H         1 <0>         0.0000
     22 H7          0.8281   -2.9197    6.2060 H         1 <0>         0.0000
     23 H8         -0.7524   -2.8779    7.0501 H         1 <0>         0.0000
     24 H9         -2.1923   -4.0383    0.4500 H         1 <0>         0.0000
     25 H10        -2.6514   -5.5877    1.1596 H         1 <0>         0.0000
     26 H11        -3.4982   -4.1116    1.6603 H         1 <0>         0.0000
     27 H12        -1.9166   -4.8400    3.3969 H         1 <0>         0.0000
     28 H13        -0.7164   -0.4371    3.7035 H         1 <0>         0.0000
     29 H14        -1.3867   -2.2613    2.0699 H         1 <0>         0.0000
@<TRIPOS>BOND
     1    1    2 ar
     2    1    3 ar
     3    1   16 1
     4    2    4 ar
     5    2   17 1
     6    3    5 ar
     7    3   18 1
     8    4    6 ar
     9    4   19 1
    10    5    6 ar
    11    5   11 1
    12    6   15 1
    13    7   12 2
    14    7   13 1
    15    7   14 1
    16    8    9 1
    17    8   12 1
    18    8   20 1
    19    8   21 1
    20    9   14 1
    21    9   22 1
    22    9   23 1
    23   10   11 1
    24   10   24 1
    25   10   25 1
    26   10   26 1
    27   11   13 1
    28   11   27 1
    29   12   28 1
    30   13   29 1
