@<TRIPOS>MOLECULE
*****
   33    34     0     0     0
SMALL
NO_CHARGES

@<TRIPOS>ATOM
      1 C1         -1.5400    0.2071    1.5856 C.ar      1 <0>         0.0000
      2 C2         -1.7610    1.0241    0.4678 C.ar      1 <0>         0.0000
      3 C3         -0.4205   -0.6322    1.6451 C.ar      1 <0>         0.0000
      4 C4         -0.8579    1.0106   -0.6018 C.ar      1 <0>         0.0000
      5 C5          0.4801   -0.6435    0.5787 C.ar      1 <0>         0.0000
      6 C6          0.2593    0.1793   -0.5315 C.ar      1 <0>         0.0000
      7 C7          0.2336   -1.8133   -2.9003 C.2       1 <0>         0.0000
      8 C8          1.7207   -1.4822    0.3880 C.3       1 <0>         0.0000
      9 C9          1.3528   -0.0009   -1.5690 C.3       1 <0>         0.0000
     10 C10         2.4556   -0.7864   -0.7850 C.3       1 <0>         0.0000
     11 C11         3.3322   -1.7063   -1.6303 C.3       1 <0>         0.0000
     12 C12        -0.5567   -1.4161   -6.5187 C.3       1 <0>         0.0000
     13 C13        -0.3074   -2.1601   -4.2851 C.3       1 <0>         0.0000
     14 N1          0.8724   -0.6217   -2.8126 N.am      1 <0>         0.0000
     15 O1          0.0780   -2.6085   -1.9732 O.2       1 <0>         0.0000
     16 O2         -0.0473   -1.1256   -5.2241 O.3       1 <0>         0.0000
     17 H1         -2.2463    0.2251    2.4121 H         1 <0>         0.0000
     18 H2         -2.6338    1.6715    0.4354 H         1 <0>         0.0000
     19 H3         -0.2612   -1.2710    2.5112 H         1 <0>         0.0000
     20 H4         -1.0288    1.6403   -1.4729 H         1 <0>         0.0000
     21 H5          2.3443   -1.5350    1.2872 H         1 <0>         0.0000
     22 H6          1.4310   -2.5007    0.1097 H         1 <0>         0.0000
     23 H7          1.7527    0.9657   -1.8897 H         1 <0>         0.0000
     24 H8          3.0932   -0.0090   -0.3451 H         1 <0>         0.0000
     25 H9          2.7476   -2.5274   -2.0525 H         1 <0>         0.0000
     26 H10         4.1278   -2.1419   -1.0157 H         1 <0>         0.0000
     27 H11         3.8071   -1.1628   -2.4548 H         1 <0>         0.0000
     28 H12        -0.3091   -0.5675   -7.1597 H         1 <0>         0.0000
     29 H13        -1.6481   -1.5466   -6.4959 H         1 <0>         0.0000
     30 H14        -0.0988   -2.3268   -6.9309 H         1 <0>         0.0000
     31 H15         0.1577   -3.1049   -4.6003 H         1 <0>         0.0000
     32 H16        -1.3873   -2.3363   -4.1806 H         1 <0>         0.0000
     33 H17         0.9023   -0.0784   -3.6668 H         1 <0>         0.0000
@<TRIPOS>BOND
     1    1    2 ar
     2    1    3 ar
     3    1   17 1
     4    2    4 ar
     5    2   18 1
     6    3    5 ar
     7    3   19 1
     8    4    6 ar
     9    4   20 1
    10    5    6 ar
    11    5    8 1
    12    6    9 1
    13    7   13 1
    14    7   14 am
    15    7   15 2
    16    8   10 1
    17    8   21 1
    18    8   22 1
    19    9   10 1
    20    9   14 1
    21    9   23 1
    22   10   11 1
    23   10   24 1
    24   11   25 1
    25   11   26 1
    26   11   27 1
    27   12   16 1
    28   12   28 1
    29   12   29 1
    30   12   30 1
    31   13   16 1
    32   13   31 1
    33   13   32 1
    34   14   33 1
