@<TRIPOS>MOLECULE
*****
   14    14     0     0     0
SMALL
NO_CHARGES

@<TRIPOS>ATOM
      1 C1          0.2265   -0.4197    0.9733 C.ar      1 <0>         0.0000
      2 C2          1.6520   -0.6227    2.8997 C.ar      1 <0>         0.0000
      3 C3         -0.6317   -1.3224    1.5803 C.ar      1 <0>         0.0000
      4 C4          1.3879   -0.0684    1.6522 C.ar      1 <0>         0.0000
      5 C5          0.7299   -1.5161    3.4206 C.ar      1 <0>         0.0000
      6 N1         -0.4092   -1.8816    2.7908 N.ar      1 <0>         0.0000
      7 O1         -0.2721   -3.1981    5.2156 O.2       1 <0>         0.0000
      8 O2          2.1329   -3.2494    4.5080 O.3       1 <0>         0.0000
      9 S1          0.9240   -2.3052    4.9996 S.o       1 <0>         0.0000
     10 Cl1         2.4935    1.0471    0.9508 Cl        1 <0>         0.0000
     11 H1         -0.0124   -0.0080   -0.0015 H         1 <0>         0.0000
     12 H2          2.5517   -0.3644    3.4497 H         1 <0>         0.0000
     13 H3         -1.5508   -1.6294    1.0922 H         1 <0>         0.0000
     14 H4          2.3449   -3.9371    5.1820 H         1 <0>         0.0000
@<TRIPOS>BOND
     1    1    3 ar
     2    1    4 ar
     3    1   11 1
     4    2    4 ar
     5    2    5 ar
     6    2   12 1
     7    3    6 ar
     8    3   13 1
     9    4   10 1
    10    5    6 ar
    11    5    9 1
    12    7    9 2
    13    8    9 1
    14    8   14 1
