@<TRIPOS>MOLECULE
*****
   16    16     0     0     0
SMALL
NO_CHARGES

@<TRIPOS>ATOM
      1 C1          1.8407   -0.0776   -2.2585 C.3       1 <0>         0.0000
      2 C2          0.4152    0.1963   -1.8683 C.3       1 <0>         0.0000
      3 C3         -0.1755   -0.3922   -0.6243 C.3       1 <0>         0.0000
      4 C4          0.1649    0.4390    0.6130 C.3       1 <0>         0.0000
      5 C5         -0.4521   -0.1489    1.8699 C.3       1 <0>         0.0000
      6 O1          0.7414   -0.7601   -2.8820 O.3       1 <0>         0.0000
      7 F1          0.0175   -1.4118    2.0503 F         1 <0>         0.0000
      8 H1          2.3612    0.6680   -2.8452 H         1 <0>         0.0000
      9 H2          2.4667   -0.6481   -1.5850 H         1 <0>         0.0000
     10 H3         -0.0436    1.1269   -2.1710 H         1 <0>         0.0000
     11 H4         -1.2635   -0.4557   -0.7425 H         1 <0>         0.0000
     12 H5          0.1987   -1.4153   -0.5025 H         1 <0>         0.0000
     13 H6          1.2543    0.4795    0.7312 H         1 <0>         0.0000
     14 H7         -0.1869    1.4686    0.4798 H         1 <0>         0.0000
     15 H8         -1.5430   -0.1958    1.8036 H         1 <0>         0.0000
     16 H9         -0.1765    0.4393    2.7497 H         1 <0>         0.0000
@<TRIPOS>BOND
     1    1    2 1
     2    1    6 1
     3    1    8 1
     4    1    9 1
     5    2    3 1
     6    2    6 1
     7    2   10 1
     8    3    4 1
     9    3   11 1
    10    3   12 1
    11    4    5 1
    12    4   13 1
    13    4   14 1
    14    5    7 1
    15    5   15 1
    16    5   16 1
