@<TRIPOS>MOLECULE
*****
   73    77     0     0     0
SMALL
NO_CHARGES

@<TRIPOS>ATOM
      1 C1          4.0644    1.2528    0.9795 C.ar      1 <0>         0.0000
      2 C2          3.1943    1.9732   -1.1533 C.ar      1 <0>         0.0000
      3 C3          4.5144   -2.4075    1.7511 C.ar      1 <0>         0.0000
      4 C4          6.1577   -3.1145    0.1504 C.ar      1 <0>         0.0000
      5 C5          5.1942   -3.1032    2.7569 C.ar      1 <0>         0.0000
      6 C6          6.8251   -3.8122    1.1555 C.ar      1 <0>         0.0000
      7 C7          4.9207    2.3562    1.0141 C.ar      1 <0>         0.0000
      8 C8          4.0438    3.0830   -1.1381 C.ar      1 <0>         0.0000
      9 C9          0.5452   -2.3066   -0.3194 C.ar      1 <0>         0.0000
     10 C10         3.1908    1.0431   -0.1017 C.ar      1 <0>         0.0000
     11 C11         2.2706   -0.1392   -0.1493 C.ar      1 <0>         0.0000
     12 C12         0.8904    0.0735    0.0580 C.ar      1 <0>         0.0000
     13 C13         4.9837   -2.4033    0.4348 C.ar      1 <0>         0.0000
     14 C14         6.3633   -3.8249    2.4844 C.ar      1 <0>         0.0000
     15 C15         1.9109   -2.5323   -0.4692 C.ar      1 <0>         0.0000
     16 C16         2.7892   -1.4231   -0.4143 C.ar      1 <0>         0.0000
     17 C17         0.0343   -1.0293   -0.0785 C.ar      1 <0>         0.0000
     18 C18         4.8937    3.2529   -0.0498 C.ar      1 <0>         0.0000
     19 C19        -3.5059    1.2641   -1.2704 C.3       1 <0>         0.0000
     20 C20        -2.0433    0.8617   -1.6120 C.3       1 <0>         0.0000
     21 C21        -3.4192    0.3697   -0.0004 C.3       1 <0>         0.0000
     22 C22        -1.1628    1.3360    0.7852 C.3       1 <0>         0.0000
     23 C23         0.3237    1.4379    0.4462 C.3       1 <0>         0.0000
     24 C24        -1.8843    0.3759   -0.1399 C.3       1 <0>         0.0000
     25 C25         1.8446   -4.5317   -2.0183 C.3       1 <0>         0.0000
     26 C26         2.0276   -4.8658    0.4966 C.3       1 <0>         0.0000
     27 C27         8.5733   -4.0747    3.6569 C.3       1 <0>         0.0000
     28 C28         7.1649   -6.1082    3.1600 C.3       1 <0>         0.0000
     29 C29         6.4747   -4.5006    4.9435 C.3       1 <0>         0.0000
     30 C30         4.2824   -1.6012   -0.6487 C.3       1 <0>         0.0000
     31 C31         2.3890   -3.9628   -0.6962 C.3       1 <0>         0.0000
     32 C32         7.1286   -4.6143    3.5552 C.3       1 <0>         0.0000
     33 O1         -1.3301   -0.9396    0.0181 O.3       1 <0>         0.0000
     34 O2          0.9372    1.9978    1.6155 O.3       1 <0>         0.0000
     35 O3          4.5630   -2.2192   -1.9232 O.3       1 <0>         0.0000
     36 F1          5.7223    4.3271   -0.0254 F         1 <0>         0.0000
     37 H1          4.0769    0.5425    1.8004 H         1 <0>         0.0000
     38 H2          2.5285    1.8207   -1.9986 H         1 <0>         0.0000
     39 H3          3.5930   -1.8872    1.9978 H         1 <0>         0.0000
     40 H4          6.5322   -3.1329   -0.8678 H         1 <0>         0.0000
     41 H5          4.7842   -3.0818    3.7609 H         1 <0>         0.0000
     42 H6          7.7261   -4.3599    0.8918 H         1 <0>         0.0000
     43 H7          5.5995    2.5222    1.8449 H         1 <0>         0.0000
     44 H8          4.0549    3.8039   -1.9499 H         1 <0>         0.0000
     45 H9         -0.1659   -3.1247   -0.3873 H         1 <0>         0.0000
     46 H10        -4.2732    1.0064   -2.0039 H         1 <0>         0.0000
     47 H11        -3.5979    2.3258   -1.0259 H         1 <0>         0.0000
     48 H12        -2.0005    0.0125   -2.2990 H         1 <0>         0.0000
     49 H13        -1.3664    1.6455   -1.9636 H         1 <0>         0.0000
     50 H14        -3.8306    0.7567    0.9362 H         1 <0>         0.0000
     51 H15        -3.8091   -0.6355   -0.1803 H         1 <0>         0.0000
     52 H16        -1.2543    0.9657    1.8119 H         1 <0>         0.0000
     53 H17        -1.6169    2.3306    0.7510 H         1 <0>         0.0000
     54 H18         0.4572    2.1333   -0.3939 H         1 <0>         0.0000
     55 H19         0.7512   -4.5988   -2.0133 H         1 <0>         0.0000
     56 H20         2.2411   -5.5386   -2.1895 H         1 <0>         0.0000
     57 H21         2.1423   -3.9023   -2.8628 H         1 <0>         0.0000
     58 H22         0.9440   -4.9486    0.6330 H         1 <0>         0.0000
     59 H23         2.4588   -4.4761    1.4235 H         1 <0>         0.0000
     60 H24         2.4232   -5.8751    0.3374 H         1 <0>         0.0000
     61 H25         9.1348   -4.6277    4.4187 H         1 <0>         0.0000
     62 H26         9.1113   -4.1725    2.7095 H         1 <0>         0.0000
     63 H27         8.5739   -3.0150    3.9334 H         1 <0>         0.0000
     64 H28         7.7061   -6.6903    3.9149 H         1 <0>         0.0000
     65 H29         6.1507   -6.5130    3.0778 H         1 <0>         0.0000
     66 H30         7.6640   -6.2615    2.1987 H         1 <0>         0.0000
     67 H31         7.0558   -5.0746    5.6729 H         1 <0>         0.0000
     68 H32         6.4393   -3.4634    5.2933 H         1 <0>         0.0000
     69 H33         5.4551   -4.8998    4.9477 H         1 <0>         0.0000
     70 H34         4.7480   -0.6110   -0.6572 H         1 <0>         0.0000
     71 H35         3.4730   -3.9576   -0.7816 H         1 <0>         0.0000
     72 H36         1.8650    2.1942    1.4081 H         1 <0>         0.0000
     73 H37         4.1384   -1.6686   -2.5998 H         1 <0>         0.0000
@<TRIPOS>BOND
     1    1    7 ar
     2    1   10 ar
     3    1   37 1
     4    2    8 ar
     5    2   10 ar
     6    2   38 1
     7    3    5 ar
     8    3   13 ar
     9    3   39 1
    10    4    6 ar
    11    4   13 ar
    12    4   40 1
    13    5   14 ar
    14    5   41 1
    15    6   14 ar
    16    6   42 1
    17    7   18 ar
    18    7   43 1
    19    8   18 ar
    20    8   44 1
    21    9   15 ar
    22    9   17 ar
    23    9   45 1
    24   10   11 1
    25   11   12 ar
    26   11   16 ar
    27   12   17 ar
    28   12   23 1
    29   13   30 1
    30   14   32 1
    31   15   16 ar
    32   15   31 1
    33   16   30 1
    34   17   33 1
    35   18   36 1
    36   19   21 1
    37   19   20 1
    38   19   46 1
    39   19   47 1
    40   20   24 1
    41   20   48 1
    42   20   49 1
    43   21   24 1
    44   21   50 1
    45   21   51 1
    46   22   23 1
    47   22   24 1
    48   22   52 1
    49   22   53 1
    50   23   34 1
    51   23   54 1
    52   24   33 1
    53   25   31 1
    54   25   55 1
    55   25   56 1
    56   25   57 1
    57   26   31 1
    58   26   58 1
    59   26   59 1
    60   26   60 1
    61   27   32 1
    62   27   61 1
    63   27   62 1
    64   27   63 1
    65   28   32 1
    66   28   64 1
    67   28   65 1
    68   28   66 1
    69   29   32 1
    70   29   67 1
    71   29   68 1
    72   29   69 1
    73   30   35 1
    74   30   70 1
    75   31   71 1
    76   34   72 1
    77   35   73 1
