@<TRIPOS>MOLECULE
*****
   61    64     0     0     0
SMALL
NO_CHARGES

@<TRIPOS>ATOM
      1 C1         -9.1396    4.1353   -4.8454 C.ar      1 <0>         0.0000
      2 C2         -7.8080    4.0339   -4.4541 C.ar      1 <0>         0.0000
      3 C3         -1.7329   -1.7747   -1.4156 C.ar      1 <0>         0.0000
      4 C4        -10.1608    4.3312   -3.9064 C.ar      1 <0>         0.0000
      5 C5         -1.8711   -0.3910   -1.5200 C.ar      1 <0>         0.0000
      6 C6         -8.4946    4.3274   -2.1391 C.ar      1 <0>         0.0000
      7 C7         -2.9106   -0.2996    0.6769 C.ar      1 <0>         0.0000
      8 C8         -7.4837    4.1311   -3.0868 C.ar      1 <0>         0.0000
      9 C9         -2.2045   -2.4358   -0.2746 C.ar      1 <0>         0.0000
     10 C10        -2.7709   -1.6871    0.7623 C.ar      1 <0>         0.0000
     11 C11        -9.8304    4.4269   -2.5459 C.ar      1 <0>         0.0000
     12 C12        -2.4664    0.3488   -0.4843 C.ar      1 <0>         0.0000
     13 C13        -4.2565    3.9407   -1.5322 C.2       1 <0>         0.0000
     14 C14        -3.9385    3.7683   -2.8488 C.2       1 <0>         0.0000
     15 C15        -6.1003    4.0264   -2.6318 C.2       1 <0>         0.0000
     16 C16        -1.5718   -4.8148   -2.1964 C.2       1 <0>         0.0000
     17 C17        -3.1254   -2.5794    1.9305 C.3       1 <0>         0.0000
     18 C18        -3.1319   -3.9901    1.3020 C.3       1 <0>         0.0000
     19 C19        -2.1710   -3.9169    0.0832 C.3       1 <0>         0.0000
     20 C20        -2.6818    3.5149   -3.6002 C.3       1 <0>         0.0000
     21 C21        -3.1063   -7.3205   -1.6760 C.3       1 <0>         0.0000
     22 C22       -12.1148    4.7284   -1.8987 C.3       1 <0>         0.0000
     23 C23        -3.3710    3.9029   -0.3253 C.3       1 <0>         0.0000
     24 C24        -2.6646   -6.3466   -0.5779 C.3       1 <0>         0.0000
     25 C25        -3.2551    2.4971    0.2612 C.3       1 <0>         0.0000
     26 C26        -2.5812   -4.8800   -1.0517 C.3       1 <0>         0.0000
     27 N1         -5.6365    4.0970   -1.4133 N.2       1 <0>         0.0000
     28 O1         -0.3898   -5.0347   -2.0582 O.2       1 <0>         0.0000
     29 O2         -5.1181    3.8284   -3.5663 O.3       1 <0>         0.0000
     30 O3         -2.0620   -4.5150   -3.4360 O.3       1 <0>         0.0000
     31 O4        -10.7415    4.6170   -1.5409 O.3       1 <0>         0.0000
     32 O5         -2.5583    1.6985   -0.6983 O.3       1 <0>         0.0000
     33 H1         -9.3979    4.0618   -5.8986 H         1 <0>         0.0000
     34 H2         -7.0243    3.8818   -5.1882 H         1 <0>         0.0000
     35 H3         -1.2473   -2.3103   -2.2248 H         1 <0>         0.0000
     36 H4        -11.1884    4.4060   -4.2429 H         1 <0>         0.0000
     37 H5         -1.5224    0.1411   -2.4004 H         1 <0>         0.0000
     38 H6         -8.2484    4.4034   -1.0852 H         1 <0>         0.0000
     39 H7         -3.3539    0.2534    1.4983 H         1 <0>         0.0000
     40 H8         -2.3526   -2.5002    2.7066 H         1 <0>         0.0000
     41 H9         -4.0800   -2.3208    2.4003 H         1 <0>         0.0000
     42 H10        -2.8534   -4.7719    2.0130 H         1 <0>         0.0000
     43 H11        -4.1444   -4.2145    0.9445 H         1 <0>         0.0000
     44 H12        -1.1541   -4.1958    0.3892 H         1 <0>         0.0000
     45 H13        -2.7223    2.5489   -4.1159 H         1 <0>         0.0000
     46 H14        -2.4982    4.2915   -4.3511 H         1 <0>         0.0000
     47 H15        -1.8407    3.4867   -2.9056 H         1 <0>         0.0000
     48 H16        -4.0875   -7.0449   -2.0812 H         1 <0>         0.0000
     49 H17        -3.1872   -8.3379   -1.2806 H         1 <0>         0.0000
     50 H18        -2.3937   -7.3462   -2.5065 H         1 <0>         0.0000
     51 H19       -12.6557    4.8749   -0.9628 H         1 <0>         0.0000
     52 H20       -12.4772    3.8155   -2.3878 H         1 <0>         0.0000
     53 H21       -12.2892    5.5890   -2.5567 H         1 <0>         0.0000
     54 H22        -2.3676    4.2662   -0.5676 H         1 <0>         0.0000
     55 H23        -3.7878    4.5642    0.4408 H         1 <0>         0.0000
     56 H24        -1.6812   -6.6379   -0.1935 H         1 <0>         0.0000
     57 H25        -3.3670   -6.4008    0.2591 H         1 <0>         0.0000
     58 H26        -2.6971    2.5167    1.2071 H         1 <0>         0.0000
     59 H27        -4.2532    2.0819    0.4462 H         1 <0>         0.0000
     60 H28        -3.5752   -4.5724   -1.4079 H         1 <0>         0.0000
     61 H29        -3.0136   -4.3299   -3.3699 H         1 <0>         0.0000
@<TRIPOS>BOND
     1    1    2 ar
     2    1    4 ar
     3    1   33 1
     4    2    8 ar
     5    2   34 1
     6    3    5 ar
     7    3    9 ar
     8    3   35 1
     9    4   11 ar
    10    4   36 1
    11    5   12 ar
    12    5   37 1
    13    6    8 ar
    14    6   11 ar
    15    6   38 1
    16    7   10 ar
    17    7   12 ar
    18    7   39 1
    19    8   15 1
    20    9   10 ar
    21    9   19 1
    22   10   17 1
    23   11   31 1
    24   12   32 1
    25   13   14 2
    26   13   23 1
    27   13   27 1
    28   14   20 1
    29   14   29 1
    30   15   27 2
    31   15   29 1
    32   16   26 1
    33   16   28 2
    34   16   30 1
    35   17   18 1
    36   17   40 1
    37   17   41 1
    38   18   19 1
    39   18   42 1
    40   18   43 1
    41   19   26 1
    42   19   44 1
    43   20   45 1
    44   20   46 1
    45   20   47 1
    46   21   24 1
    47   21   48 1
    48   21   49 1
    49   21   50 1
    50   22   31 1
    51   22   51 1
    52   22   52 1
    53   22   53 1
    54   23   25 1
    55   23   54 1
    56   23   55 1
    57   24   26 1
    58   24   56 1
    59   24   57 1
    60   25   32 1
    61   25   58 1
    62   25   59 1
    63   26   60 1
    64   30   61 1
