@<TRIPOS>MOLECULE
*****
   68    70     0     0     0
SMALL
NO_CHARGES

@<TRIPOS>ATOM
      1 C1         -4.1627    0.4555   -1.2181 C.ar      1 <0>         0.0000
      2 C2         -2.7720    0.5885   -1.2015 C.ar      1 <0>         0.0000
      3 C3         -4.0302   -1.0351    0.6722 C.ar      1 <0>         0.0000
      4 C4         -2.6411   -0.9024    0.6879 C.ar      1 <0>         0.0000
      5 C5         -4.8062   -0.3621   -0.2808 C.ar      1 <0>         0.0000
      6 C6         -1.9963   -0.0855   -0.2510 C.ar      1 <0>         0.0000
      7 C7         -6.7547   -1.7030   -1.3092 C.3       1 <0>         0.0000
      8 C8         -0.0002    1.0851    0.8969 C.3       1 <0>         0.0000
      9 C9         -7.8925   -1.0230   -2.0883 C.3       1 <0>         0.0000
     10 C10         1.1564    0.2981    1.5360 C.3       1 <0>         0.0000
     11 C11        -6.2964   -0.5821   -0.3267 C.3       1 <0>         0.0000
     12 C12        -0.5035    0.1150   -0.2085 C.3       1 <0>         0.0000
     13 C13        -8.0600    2.0776   -2.7866 C.3       1 <0>         0.0000
     14 C14         3.4726   -1.4483    1.6702 C.3       1 <0>         0.0000
     15 C15       -10.8484    1.0451   -0.2341 C.3       1 <0>         0.0000
     16 C16        -8.9729    2.6402    0.2370 C.3       1 <0>         0.0000
     17 C17       -10.6083    3.1209   -1.6096 C.3       1 <0>         0.0000
     18 C18         1.0755   -3.8486   -0.2733 C.3       1 <0>         0.0000
     19 C19         2.7608   -2.3638   -1.4115 C.3       1 <0>         0.0000
     20 C20         3.4678   -4.0051    0.3488 C.3       1 <0>         0.0000
     21 C21        -8.9686    1.2124   -1.8970 C.3       1 <0>         0.0000
     22 C22         2.1551   -1.9250    1.0370 C.3       1 <0>         0.0000
     23 C23        -9.8330    2.0110   -0.8738 C.3       1 <0>         0.0000
     24 C24         2.3611   -3.0153   -0.0758 C.3       1 <0>         0.0000
     25 N1         -8.2544    0.1099   -1.2221 N.3       1 <0>         0.0000
     26 N2          1.4758   -0.7237    0.5198 N.3       1 <0>         0.0000
     27 O1         -6.9405    0.6008   -0.8010 O.3       1 <0>         0.0000
     28 O2          0.1309   -1.1280    0.1012 O.3       1 <0>         0.0000
     29 H1         -4.7569    0.9886   -1.9537 H         1 <0>         0.0000
     30 H2         -2.2846    1.2236   -1.9388 H         1 <0>         0.0000
     31 H3         -4.5176   -1.6708    1.4091 H         1 <0>         0.0000
     32 H4         -2.0473   -1.4384    1.4225 H         1 <0>         0.0000
     33 H5         -7.0989   -2.5793   -0.7548 H         1 <0>         0.0000
     34 H6         -5.9424   -2.0122   -1.9699 H         1 <0>         0.0000
     35 H7         -0.7835    1.3049    1.6249 H         1 <0>         0.0000
     36 H8          0.3348    2.0286    0.4592 H         1 <0>         0.0000
     37 H9         -7.5425   -0.6988   -3.0796 H         1 <0>         0.0000
     38 H10        -8.7718   -1.6602   -2.2165 H         1 <0>         0.0000
     39 H11         2.0332    0.9209    1.7198 H         1 <0>         0.0000
     40 H12         0.8387   -0.1651    2.4841 H         1 <0>         0.0000
     41 H13        -6.6720   -0.8115    0.6795 H         1 <0>         0.0000
     42 H14        -0.1442    0.4615   -1.1863 H         1 <0>         0.0000
     43 H15        -7.4140    2.7276   -2.1940 H         1 <0>         0.0000
     44 H16        -8.6603    2.6981   -3.4561 H         1 <0>         0.0000
     45 H17        -7.4144    1.4520   -3.4095 H         1 <0>         0.0000
     46 H18         4.1196   -0.9711    0.9276 H         1 <0>         0.0000
     47 H19         4.0117   -2.2859    2.1128 H         1 <0>         0.0000
     48 H20         3.2912   -0.7306    2.4732 H         1 <0>         0.0000
     49 H21       -11.5225    0.6228   -0.9900 H         1 <0>         0.0000
     50 H22       -10.3362    0.2187    0.2648 H         1 <0>         0.0000
     51 H23       -11.4648    1.5693    0.5049 H         1 <0>         0.0000
     52 H24        -8.2243    3.3293   -0.1661 H         1 <0>         0.0000
     53 H25        -8.4442    1.8739    0.8083 H         1 <0>         0.0000
     54 H26        -9.6108    3.2076    0.9246 H         1 <0>         0.0000
     55 H27        -9.9470    3.9111   -1.9776 H         1 <0>         0.0000
     56 H28       -11.3308    3.5877   -0.9311 H         1 <0>         0.0000
     57 H29       -11.1683    2.7211   -2.4643 H         1 <0>         0.0000
     58 H30         0.7791   -4.3343    0.6645 H         1 <0>         0.0000
     59 H31         0.2419   -3.2382   -0.6166 H         1 <0>         0.0000
     60 H32         1.2564   -4.6388   -1.0114 H         1 <0>         0.0000
     61 H33         3.6564   -1.7422   -1.3062 H         1 <0>         0.0000
     62 H34         1.9584   -1.7312   -1.7969 H         1 <0>         0.0000
     63 H35         2.9775   -3.1404   -2.1542 H         1 <0>         0.0000
     64 H36         4.4613   -3.5478    0.3546 H         1 <0>         0.0000
     65 H37         3.4986   -4.8421   -0.3567 H         1 <0>         0.0000
     66 H38         3.2768   -4.4240    1.3443 H         1 <0>         0.0000
     67 H39        -9.6813    0.6950   -2.5531 H         1 <0>         0.0000
     68 H40         1.5360   -2.3754    1.8341 H         1 <0>         0.0000
@<TRIPOS>BOND
     1    1    2 ar
     2    1    5 ar
     3    1   29 1
     4    2    6 ar
     5    2   30 1
     6    3    4 ar
     7    3    5 ar
     8    3   31 1
     9    4    6 ar
    10    4   32 1
    11    5   11 1
    12    6   12 1
    13    7    9 1
    14    7   11 1
    15    7   33 1
    16    7   34 1
    17    8   10 1
    18    8   12 1
    19    8   35 1
    20    8   36 1
    21    9   25 1
    22    9   37 1
    23    9   38 1
    24   10   26 1
    25   10   39 1
    26   10   40 1
    27   11   27 1
    28   11   41 1
    29   12   28 1
    30   12   42 1
    31   13   21 1
    32   13   43 1
    33   13   44 1
    34   13   45 1
    35   14   22 1
    36   14   46 1
    37   14   47 1
    38   14   48 1
    39   15   23 1
    40   15   49 1
    41   15   50 1
    42   15   51 1
    43   16   23 1
    44   16   52 1
    45   16   53 1
    46   16   54 1
    47   17   23 1
    48   17   55 1
    49   17   56 1
    50   17   57 1
    51   18   24 1
    52   18   58 1
    53   18   59 1
    54   18   60 1
    55   19   24 1
    56   19   61 1
    57   19   62 1
    58   19   63 1
    59   20   24 1
    60   20   64 1
    61   20   65 1
    62   20   66 1
    63   21   23 1
    64   21   25 1
    65   21   67 1
    66   22   24 1
    67   22   26 1
    68   22   68 1
    69   25   27 1
    70   26   28 1
