@<TRIPOS>MOLECULE
*****
   74    77     0     0     0
SMALL
NO_CHARGES

@<TRIPOS>ATOM
      1 C1          4.6081   -2.8896   -3.2798 C.ar      1 <0>         0.0000
      2 C2          4.5423   -3.0966   -1.8970 C.ar      1 <0>         0.0000
      3 C3          3.7944   -1.9150   -3.8665 C.ar      1 <0>         0.0000
      4 C4          3.6665   -2.3450   -1.1135 C.ar      1 <0>         0.0000
      5 C5          2.9251   -1.1569   -3.0779 C.ar      1 <0>         0.0000
      6 C6          0.7988   -3.1848    1.4501 C.ar      1 <0>         0.0000
      7 C7          0.5983   -3.3777   -0.9368 C.ar      1 <0>         0.0000
      8 C8         -1.0280   -0.4548    1.2748 C.ar      1 <0>         0.0000
      9 C9          0.5872   -4.5603    1.5927 C.ar      1 <0>         0.0000
     10 C10         0.3772   -4.7432   -0.8138 C.ar      1 <0>         0.0000
     11 C11        -1.7560    0.3579    2.1432 C.ar      1 <0>         0.0000
     12 C12         0.2525    1.6423    2.5743 C.ar      1 <0>         0.0000
     13 C13         0.8280   -2.5675    0.1923 C.ar      1 <0>         0.0000
     14 C14         2.8350   -1.3671   -1.6903 C.ar      1 <0>         0.0000
     15 C15         0.3338   -0.2300    1.0213 C.ar      1 <0>         0.0000
     16 C16         0.9816    0.8327    1.7001 C.ar      1 <0>         0.0000
     17 C17         0.3785   -5.3492    0.4534 C.ar      1 <0>         0.0000
     18 C18        -1.1100    1.4160    2.7935 C.ar      1 <0>         0.0000
     19 C19         1.0740   -1.1060    0.0732 C.2       1 <0>         0.0000
     20 C20         1.9135   -0.5601   -0.8501 C.2       1 <0>         0.0000
     21 C21         2.4609    1.0698    1.4982 C.3       1 <0>         0.0000
     22 C22         1.9771    0.9489   -1.0054 C.3       1 <0>         0.0000
     23 C23         2.8059    1.6295    0.1026 C.3       1 <0>         0.0000
     24 C24        -0.1157   -9.6589    2.7796 C.3       1 <0>         0.0000
     25 C25        -0.0843   -8.8483    1.4791 C.3       1 <0>         0.0000
     26 C26        -0.1444  -16.3953    6.6608 C.3       1 <0>         0.0000
     27 C27        -0.3433  -11.1554    2.5308 C.3       1 <0>         0.0000
     28 C28        -0.3299  -15.8658    5.2330 C.3       1 <0>         0.0000
     29 C29         0.1600   -7.3683    1.7341 C.3       1 <0>         0.0000
     30 C30        -0.0860  -17.9116    6.7322 C.3       1 <0>         0.0000
     31 C31        -0.3771  -11.9561    3.8307 C.3       1 <0>         0.0000
     32 C32        -0.3663  -14.3396    5.1961 C.3       1 <0>         0.0000
     33 O1          0.7657  -14.1478    2.7521 O.2       1 <0>         0.0000
     34 O2         -1.7601    2.2573    3.6665 O.3       1 <0>         0.0000
     35 O3          0.1593   -6.7008    0.4710 O.3       1 <0>         0.0000
     36 F1          1.0315  -18.3883    6.0247 F         1 <0>         0.0000
     37 S1         -0.5278  -13.7559    3.4531 S.o       1 <0>         0.0000
     38 H1          5.2873   -3.4779   -3.8914 H         1 <0>         0.0000
     39 H2          5.1756   -3.8458   -1.4284 H         1 <0>         0.0000
     40 H3          3.8344   -1.7460   -4.9399 H         1 <0>         0.0000
     41 H4          3.6164   -2.5157   -0.0424 H         1 <0>         0.0000
     42 H5          2.2888   -0.4125   -3.5503 H         1 <0>         0.0000
     43 H6          0.9523   -2.5814    2.3408 H         1 <0>         0.0000
     44 H7          0.5957   -2.9264   -1.9239 H         1 <0>         0.0000
     45 H8         -1.5273   -1.2810    0.7765 H         1 <0>         0.0000
     46 H9          0.5859   -4.9955    2.5856 H         1 <0>         0.0000
     47 H10         0.1993   -5.3641   -1.6871 H         1 <0>         0.0000
     48 H11        -2.8149    0.1692    2.3139 H         1 <0>         0.0000
     49 H12         0.7361    2.4570    3.1070 H         1 <0>         0.0000
     50 H13         2.8420    1.7430    2.2722 H         1 <0>         0.0000
     51 H14         2.9825    0.1138    1.6203 H         1 <0>         0.0000
     52 H15         2.4016    1.2138   -1.9774 H         1 <0>         0.0000
     53 H16         0.9610    1.3561   -0.9743 H         1 <0>         0.0000
     54 H17         2.6126    2.7085    0.0680 H         1 <0>         0.0000
     55 H18         3.8776    1.4872   -0.0793 H         1 <0>         0.0000
     56 H19         0.8309   -9.5243    3.3199 H         1 <0>         0.0000
     57 H20        -0.9054   -9.2703    3.4371 H         1 <0>         0.0000
     58 H21         0.7033   -9.2280    0.8186 H         1 <0>         0.0000
     59 H22        -1.0324   -8.9617    0.9407 H         1 <0>         0.0000
     60 H23        -0.9738  -16.0649    7.3011 H         1 <0>         0.0000
     61 H24         0.7753  -15.9874    7.0971 H         1 <0>         0.0000
     62 H25        -1.2839  -11.2985    1.9842 H         1 <0>         0.0000
     63 H26         0.4571  -11.5507    1.8961 H         1 <0>         0.0000
     64 H27         0.4894  -16.2186    4.6001 H         1 <0>         0.0000
     65 H28        -1.2599  -16.2679    4.8110 H         1 <0>         0.0000
     66 H29         1.1258   -7.2165    2.2360 H         1 <0>         0.0000
     67 H30        -0.6273   -6.9504    2.3775 H         1 <0>         0.0000
     68 H31        -0.9719  -18.3726    6.2810 H         1 <0>         0.0000
     69 H32         0.0156  -18.2593    7.7655 H         1 <0>         0.0000
     70 H33         0.5526  -11.8304    4.3964 H         1 <0>         0.0000
     71 H34        -1.2282  -11.6761    4.4624 H         1 <0>         0.0000
     72 H35         0.5636  -13.9127    5.5873 H         1 <0>         0.0000
     73 H36        -1.2165  -13.9356    5.7585 H         1 <0>         0.0000
     74 H37        -2.6921    1.9931    3.7214 H         1 <0>         0.0000
@<TRIPOS>BOND
     1    1    3 ar
     2    1    2 ar
     3    1   38 1
     4    2    4 ar
     5    2   39 1
     6    3    5 ar
     7    3   40 1
     8    4   14 ar
     9    4   41 1
    10    5   14 ar
    11    5   42 1
    12    6    9 ar
    13    6   13 ar
    14    6   43 1
    15    7   10 ar
    16    7   13 ar
    17    7   44 1
    18    8   11 ar
    19    8   15 ar
    20    8   45 1
    21    9   17 ar
    22    9   46 1
    23   10   17 ar
    24   10   47 1
    25   11   18 ar
    26   11   48 1
    27   12   16 ar
    28   12   18 ar
    29   12   49 1
    30   13   19 1
    31   14   20 1
    32   15   16 ar
    33   15   19 1
    34   16   21 1
    35   17   35 1
    36   18   34 1
    37   19   20 2
    38   20   22 1
    39   21   23 1
    40   21   50 1
    41   21   51 1
    42   22   23 1
    43   22   52 1
    44   22   53 1
    45   23   54 1
    46   23   55 1
    47   24   25 1
    48   24   27 1
    49   24   56 1
    50   24   57 1
    51   25   29 1
    52   25   58 1
    53   25   59 1
    54   26   28 1
    55   26   30 1
    56   26   60 1
    57   26   61 1
    58   27   31 1
    59   27   62 1
    60   27   63 1
    61   28   32 1
    62   28   64 1
    63   28   65 1
    64   29   35 1
    65   29   66 1
    66   29   67 1
    67   30   36 1
    68   30   68 1
    69   30   69 1
    70   31   37 1
    71   31   70 1
    72   31   71 1
    73   32   37 1
    74   32   72 1
    75   32   73 1
    76   33   37 2
    77   34   74 1
