@<TRIPOS>MOLECULE
*****
   55    58     0     0     0
SMALL
NO_CHARGES

@<TRIPOS>ATOM
      1 C1          4.8941   -3.7516    3.9297 C.ar      1 <0>         0.0000
      2 C2         -0.1881  -10.1833    3.5575 C.ar      1 <0>         0.0000
      3 C3          3.8568   -2.8145    3.8575 C.ar      1 <0>         0.0000
      4 C4          4.5963   -5.1140    4.0661 C.ar      1 <0>         0.0000
      5 C5         -1.1704   -9.1892    3.4563 C.ar      1 <0>         0.0000
      6 C6          1.1145   -9.9077    3.1315 C.ar      1 <0>         0.0000
      7 C7         -0.5812   -1.6233    1.9689 C.ar      1 <0>         0.0000
      8 C8          1.0387   -2.3404    0.3518 C.ar      1 <0>         0.0000
      9 C9          2.5273   -3.2404    3.9186 C.ar      1 <0>         0.0000
     10 C10         3.2628   -5.5348    4.1209 C.ar      1 <0>         0.0000
     11 C11        -0.8516   -7.9352    2.9309 C.ar      1 <0>         0.0000
     12 C12         1.4294   -8.6479    2.6085 C.ar      1 <0>         0.0000
     13 C13        -0.6542   -2.9207    2.4676 C.ar      1 <0>         0.0000
     14 C14         0.9986   -3.6385    0.8724 C.ar      1 <0>         0.0000
     15 C15         0.2866   -1.3041    0.9115 C.ar      1 <0>         0.0000
     16 C16         2.2145   -4.6038    4.0439 C.ar      1 <0>         0.0000
     17 C17         0.4524   -7.6511    2.4977 C.ar      1 <0>         0.0000
     18 C18         0.1699   -3.9392    1.9612 C.ar      1 <0>         0.0000
     19 C19         1.4612    0.5874    2.8727 C.2       1 <0>         0.0000
     20 C20        -0.2433    1.6439   -0.8883 C.3       1 <0>         0.0000
     21 C21        -0.7399    1.0727    0.4682 C.3       1 <0>         0.0000
     22 C22         0.6947    0.4136   -1.0289 C.3       1 <0>         0.0000
     23 C23         0.5039    0.1294    0.4973 C.3       1 <0>         0.0000
     24 C24         0.7712   -5.0681    4.0207 C.3       1 <0>         0.0000
     25 C25         0.7875   -6.3010    1.8943 C.3       1 <0>         0.0000
     26 C26         1.6710    0.7137    1.3309 C.3       1 <0>         0.0000
     27 N1          0.1995   -5.1974    2.6481 N.pl3     1 <0>         0.0000
     28 O1          0.4174    1.1367    3.3291 O.co2     1 <0>         0.0000
     29 O2          2.3481   -0.0589    3.5008 O.co2     1 <0>         0.0000
     30 H1          5.9314   -3.4247    3.8837 H         1 <0>         0.0000
     31 H2         -0.4351  -11.1585    3.9709 H         1 <0>         0.0000
     32 H3          4.0323   -1.7476    3.7469 H         1 <0>         0.0000
     33 H4          5.3994   -5.8461    4.1319 H         1 <0>         0.0000
     34 H5         -2.1850   -9.3933    3.7915 H         1 <0>         0.0000
     35 H6          1.8879  -10.6681    3.2150 H         1 <0>         0.0000
     36 H7         -1.1457   -0.8278    2.4450 H         1 <0>         0.0000
     37 H8          1.7241   -2.1218   -0.4647 H         1 <0>         0.0000
     38 H9          1.7574   -2.4771    3.8565 H         1 <0>         0.0000
     39 H10         3.0314   -6.5934    4.2322 H         1 <0>         0.0000
     40 H11        -1.6008   -7.1506    2.8672 H         1 <0>         0.0000
     41 H12         2.4475   -8.4319    2.2909 H         1 <0>         0.0000
     42 H13        -1.3122   -3.1406    3.3049 H         1 <0>         0.0000
     43 H14         1.6693   -4.3882    0.4654 H         1 <0>         0.0000
     44 H15         0.3146    2.5774   -0.7655 H         1 <0>         0.0000
     45 H16        -0.9908    1.7884   -1.6765 H         1 <0>         0.0000
     46 H17        -0.8258    1.7426    1.3245 H         1 <0>         0.0000
     47 H18        -1.6707    0.5068    0.3484 H         1 <0>         0.0000
     48 H19         0.2469   -0.3703   -1.6507 H         1 <0>         0.0000
     49 H20         1.7205    0.5951   -1.3705 H         1 <0>         0.0000
     50 H21         0.6722   -6.0424    4.5081 H         1 <0>         0.0000
     51 H22         0.1427   -4.3651    4.5699 H         1 <0>         0.0000
     52 H23         1.8813   -6.2188    1.7899 H         1 <0>         0.0000
     53 H24         0.3702   -6.2589    0.8818 H         1 <0>         0.0000
     54 H25         1.7878    1.7763    1.0752 H         1 <0>         0.0000
     55 H26         2.5932    0.1927    1.0498 H         1 <0>         0.0000
@<TRIPOS>BOND
     1    1    4 ar
     2    1    3 ar
     3    1   30 1
     4    2    6 ar
     5    2    5 ar
     6    2   31 1
     7    3    9 ar
     8    3   32 1
     9    4   10 ar
    10    4   33 1
    11    5   11 ar
    12    5   34 1
    13    6   12 ar
    14    6   35 1
    15    7   13 ar
    16    7   15 ar
    17    7   36 1
    18    8   14 ar
    19    8   15 ar
    20    8   37 1
    21    9   16 ar
    22    9   38 1
    23   10   16 ar
    24   10   39 1
    25   11   17 ar
    26   11   40 1
    27   12   17 ar
    28   12   41 1
    29   13   18 ar
    30   13   42 1
    31   14   18 ar
    32   14   43 1
    33   15   23 1
    34   16   24 1
    35   17   25 1
    36   18   27 1
    37   19   26 1
    38   19   28 1
    39   19   29 2
    40   20   22 1
    41   20   21 1
    42   20   44 1
    43   20   45 1
    44   21   23 1
    45   21   46 1
    46   21   47 1
    47   22   23 1
    48   22   48 1
    49   22   49 1
    50   23   26 1
    51   24   27 1
    52   24   50 1
    53   24   51 1
    54   25   27 1
    55   25   52 1
    56   25   53 1
    57   26   54 1
    58   26   55 1
