@<TRIPOS>MOLECULE
*****
   75    79     0     0     0
SMALL
NO_CHARGES

@<TRIPOS>ATOM
      1 C1          4.8648   -0.7024   -3.4162 C.ar      1 <0>         0.0000
      2 C2          2.1567  -17.6837   -5.9216 C.ar      1 <0>         0.0000
      3 C3          4.9320   -1.2152   -2.1152 C.ar      1 <0>         0.0000
      4 C4          3.8482    0.2001   -3.7454 C.ar      1 <0>         0.0000
      5 C5          0.8821  -17.1308   -6.0823 C.ar      1 <0>         0.0000
      6 C6          3.2415  -16.8516   -5.6227 C.ar      1 <0>         0.0000
      7 C7          3.9886   -0.8371   -1.1597 C.ar      1 <0>         0.0000
      8 C8          2.9102    0.5845   -2.7836 C.ar      1 <0>         0.0000
      9 C9          1.5241   -2.7622    1.2094 C.ar      1 <0>         0.0000
     10 C10         1.1605   -2.4511   -1.1455 C.ar      1 <0>         0.0000
     11 C11        -0.7969   -0.4771    1.7124 C.ar      1 <0>         0.0000
     12 C12         0.6966  -15.7520   -5.9465 C.ar      1 <0>         0.0000
     13 C13         3.0570  -15.4735   -5.4904 C.ar      1 <0>         0.0000
     14 C14         1.5794   -4.1393    1.0269 C.ar      1 <0>         0.0000
     15 C15         1.2038   -3.8333   -1.3469 C.ar      1 <0>         0.0000
     16 C16        -1.6033   -0.0375    2.7616 C.ar      1 <0>         0.0000
     17 C17         0.1483    1.5009    3.4209 C.ar      1 <0>         0.0000
     18 C18         1.3322   -1.8848    0.1245 C.ar      1 <0>         0.0000
     19 C19         2.9548    0.0632   -1.4782 C.ar      1 <0>         0.0000
     20 C20         0.4752    0.0684    1.4810 C.ar      1 <0>         0.0000
     21 C21         0.9554    1.0654    2.3674 C.ar      1 <0>         0.0000
     22 C22         1.7810  -14.9109   -5.6565 C.ar      1 <0>         0.0000
     23 C23         1.4237   -4.6868   -0.2567 C.ar      1 <0>         0.0000
     24 C24        -1.1271    0.9620    3.6182 C.ar      1 <0>         0.0000
     25 C25         1.2994   -0.4142    0.3406 C.2       1 <0>         0.0000
     26 C26         1.9605    0.4732   -0.4535 C.2       1 <0>         0.0000
     27 C27         2.3469    1.6291    2.1914 C.3       1 <0>         0.0000
     28 C28         1.7331    1.9624   -0.2640 C.3       1 <0>         0.0000
     29 C29         2.4906    2.5348    0.9510 C.3       1 <0>         0.0000
     30 C30         1.5799  -13.4346   -5.4818 C.3       1 <0>         0.0000
     31 C31         1.3306   -8.9173   -2.7712 C.3       1 <0>         0.0000
     32 C32         1.4858   -8.1643   -1.4451 C.3       1 <0>         0.0000
     33 C33         1.4823  -10.4347   -2.6031 C.3       1 <0>         0.0000
     34 C34         1.3501   -6.6594   -1.6236 C.3       1 <0>         0.0000
     35 C35         1.3195  -11.1786   -3.9268 C.3       1 <0>         0.0000
     36 O1          3.0926  -13.0911   -3.2593 O.2       1 <0>         0.0000
     37 O2         -1.8621    1.4438    4.6762 O.3       1 <0>         0.0000
     38 O3          1.4924   -6.0521   -0.3381 O.3       1 <0>         0.0000
     39 S1          1.6319  -12.9811   -3.6733 S.o       1 <0>         0.0000
     40 H1          5.5984   -0.9985   -4.1618 H         1 <0>         0.0000
     41 H2          2.3036  -18.7555   -6.0277 H         1 <0>         0.0000
     42 H3          5.7231   -1.9100   -1.8442 H         1 <0>         0.0000
     43 H4          3.7844    0.6049   -4.7525 H         1 <0>         0.0000
     44 H5          0.0347  -17.7708   -6.3139 H         1 <0>         0.0000
     45 H6          4.2325  -17.2775   -5.4890 H         1 <0>         0.0000
     46 H7          4.0441   -1.2435   -0.1545 H         1 <0>         0.0000
     47 H8          2.1183    1.2770   -3.0581 H         1 <0>         0.0000
     48 H9          1.6397   -2.3533    2.2096 H         1 <0>         0.0000
     49 H10         0.9933   -1.8006   -1.9983 H         1 <0>         0.0000
     50 H11        -1.1627   -1.2593    1.0533 H         1 <0>         0.0000
     51 H12        -0.2971  -15.3264   -6.0719 H         1 <0>         0.0000
     52 H13         3.8932  -14.8292   -5.2352 H         1 <0>         0.0000
     53 H14         1.7417   -4.8122    1.8640 H         1 <0>         0.0000
     54 H15         1.0654   -4.2253   -2.3480 H         1 <0>         0.0000
     55 H16        -2.5911   -0.4703    2.9136 H         1 <0>         0.0000
     56 H17         0.5044    2.2592    4.1134 H         1 <0>         0.0000
     57 H18         2.6443    2.1801    3.0889 H         1 <0>         0.0000
     58 H19         3.0457    0.7917    2.0844 H         1 <0>         0.0000
     59 H20         2.0368    2.5106   -1.1599 H         1 <0>         0.0000
     60 H21         0.6631    2.1458   -0.1195 H         1 <0>         0.0000
     61 H22         2.0977    3.5362    1.1645 H         1 <0>         0.0000
     62 H23         3.5559    2.6484    0.7189 H         1 <0>         0.0000
     63 H24         2.3851  -12.8508   -5.9382 H         1 <0>         0.0000
     64 H25         0.6144  -13.1031   -5.8754 H         1 <0>         0.0000
     65 H26         0.3491   -8.6915   -3.2101 H         1 <0>         0.0000
     66 H27         2.0803   -8.5579   -3.4886 H         1 <0>         0.0000
     67 H28         0.7296   -8.5040   -0.7280 H         1 <0>         0.0000
     68 H29         2.4642   -8.3815   -1.0018 H         1 <0>         0.0000
     69 H30         2.4700  -10.6654   -2.1903 H         1 <0>         0.0000
     70 H31         0.7418  -10.8003   -1.8807 H         1 <0>         0.0000
     71 H32         0.3685   -6.4066   -2.0488 H         1 <0>         0.0000
     72 H33         2.1241   -6.2784   -2.3042 H         1 <0>         0.0000
     73 H34         0.3074  -11.0726   -4.3344 H         1 <0>         0.0000
     74 H35         2.0474  -10.8306   -4.6681 H         1 <0>         0.0000
     75 H36        -2.7165    0.9846    4.6999 H         1 <0>         0.0000
@<TRIPOS>BOND
     1    1    4 ar
     2    1    3 ar
     3    1   40 1
     4    2    6 ar
     5    2    5 ar
     6    2   41 1
     7    3    7 ar
     8    3   42 1
     9    4    8 ar
    10    4   43 1
    11    5   12 ar
    12    5   44 1
    13    6   13 ar
    14    6   45 1
    15    7   19 ar
    16    7   46 1
    17    8   19 ar
    18    8   47 1
    19    9   14 ar
    20    9   18 ar
    21    9   48 1
    22   10   15 ar
    23   10   18 ar
    24   10   49 1
    25   11   16 ar
    26   11   20 ar
    27   11   50 1
    28   12   22 ar
    29   12   51 1
    30   13   22 ar
    31   13   52 1
    32   14   23 ar
    33   14   53 1
    34   15   23 ar
    35   15   54 1
    36   16   24 ar
    37   16   55 1
    38   17   21 ar
    39   17   24 ar
    40   17   56 1
    41   18   25 1
    42   19   26 1
    43   20   21 ar
    44   20   25 1
    45   21   27 1
    46   22   30 1
    47   23   38 1
    48   24   37 1
    49   25   26 2
    50   26   28 1
    51   27   29 1
    52   27   57 1
    53   27   58 1
    54   28   29 1
    55   28   59 1
    56   28   60 1
    57   29   61 1
    58   29   62 1
    59   30   39 1
    60   30   63 1
    61   30   64 1
    62   31   32 1
    63   31   33 1
    64   31   65 1
    65   31   66 1
    66   32   34 1
    67   32   67 1
    68   32   68 1
    69   33   35 1
    70   33   69 1
    71   33   70 1
    72   34   38 1
    73   34   71 1
    74   34   72 1
    75   35   39 1
    76   35   73 1
    77   35   74 1
    78   36   39 2
    79   37   75 1
