@<TRIPOS>MOLECULE
*****
   74    77     0     0     0
SMALL
NO_CHARGES

@<TRIPOS>ATOM
      1 C1          4.0615   -4.6438    5.1863 C.ar      1 <0>         0.0000
      2 C2          3.7172   -3.6389    6.0974 C.ar      1 <0>         0.0000
      3 C3          5.3558   -4.6754    4.6573 C.ar      1 <0>         0.0000
      4 C4         -7.4147    8.5042    0.2008 C.ar      1 <0>         0.0000
      5 C5         -8.6264    8.1995    0.8252 C.ar      1 <0>         0.0000
      6 C6          4.6540   -2.6725    6.4657 C.ar      1 <0>         0.0000
      7 C7          6.2942   -3.7113    5.0353 C.ar      1 <0>         0.0000
      8 C8          8.0357    1.7849    6.0786 C.ar      1 <0>         0.0000
      9 C9          7.9803    0.6713    8.2086 C.ar      1 <0>         0.0000
     10 C10         4.7292    1.2449    6.1752 C.ar      1 <0>         0.0000
     11 C11         5.0774   -0.2415    4.3198 C.ar      1 <0>         0.0000
     12 C12         8.8686    2.7704    6.6011 C.ar      1 <0>         0.0000
     13 C13         8.8080    1.6578    8.7520 C.ar      1 <0>         0.0000
     14 C14         3.5937    1.7761    5.5544 C.ar      1 <0>         0.0000
     15 C15         3.9595    0.2818    3.6833 C.ar      1 <0>         0.0000
     16 C16        -6.2245    8.2246    0.8722 C.ar      1 <0>         0.0000
     17 C17        -8.5904    7.6236    2.0984 C.ar      1 <0>         0.0000
     18 C18         7.5882    0.7050    6.8625 C.ar      1 <0>         0.0000
     19 C19         5.4811    0.2179    5.5887 C.ar      1 <0>         0.0000
     20 C20         5.9552   -2.6847    5.9331 C.ar      1 <0>         0.0000
     21 C21         9.2600    2.7077    7.9451 C.ar      1 <0>         0.0000
     22 C22         3.2017    1.2906    4.2997 C.ar      1 <0>         0.0000
     23 C23        -6.2963    7.6427    2.1457 C.ar      1 <0>         0.0000
     24 C24         6.6848   -0.3270    6.2788 C.2       1 <0>         0.0000
     25 C25         6.9531   -1.6584    6.3507 C.2       1 <0>         0.0000
     26 C26         8.1101   -3.0412    8.1598 C.3       1 <0>         0.0000
     27 C27        -5.0473    7.3015    2.9154 C.3       1 <0>         0.0000
     28 C28         8.2634   -2.2191    6.8687 C.3       1 <0>         0.0000
     29 C29        -0.7455    4.1748    3.7270 C.3       1 <0>         0.0000
     30 C30         0.1830    3.0744    3.2015 C.3       1 <0>         0.0000
     31 C31        -1.8827    4.4898    2.7464 C.3       1 <0>         0.0000
     32 C32         1.3118    2.7662    4.1744 C.3       1 <0>         0.0000
     33 C33        -2.7979    5.5885    3.2875 C.3       1 <0>         0.0000
     34 N1         -7.4555    7.3443    2.7527 N.ar      1 <0>         0.0000
     35 O1         -3.5163    6.4862    0.8723 O.2       1 <0>         0.0000
     36 O2         -5.0002    4.7528    2.0191 O.2       1 <0>         0.0000
     37 O3         10.0776    3.7085    8.4155 O.3       1 <0>         0.0000
     38 O4          2.1150    1.7373    3.5956 O.3       1 <0>         0.0000
     39 S1         -4.1308    5.9370    2.0979 S.o2      1 <0>         0.0000
     40 H1          3.3315   -5.3947    4.8950 H         1 <0>         0.0000
     41 H2          2.7164   -3.6078    6.5211 H         1 <0>         0.0000
     42 H3          5.6354   -5.4506    3.9479 H         1 <0>         0.0000
     43 H4         -7.3956    8.9485   -0.7908 H         1 <0>         0.0000
     44 H5         -9.5786    8.3994    0.3422 H         1 <0>         0.0000
     45 H6          4.3795   -1.8907    7.1676 H         1 <0>         0.0000
     46 H7          7.2926   -3.7445    4.6068 H         1 <0>         0.0000
     47 H8          7.7254    1.8474    5.0391 H         1 <0>         0.0000
     48 H9          7.6219   -0.1304    8.8472 H         1 <0>         0.0000
     49 H10         5.0308    1.6381    7.1424 H         1 <0>         0.0000
     50 H11         5.6507   -1.0200    3.8273 H         1 <0>         0.0000
     51 H12         9.2215    3.5943    5.9876 H         1 <0>         0.0000
     52 H13         9.0924    1.6113    9.8024 H         1 <0>         0.0000
     53 H14         3.0366    2.5616    6.0525 H         1 <0>         0.0000
     54 H15         3.6538   -0.0736    2.7035 H         1 <0>         0.0000
     55 H16        -5.2585    8.4239    0.4193 H         1 <0>         0.0000
     56 H17        -9.5139    7.3726    2.6174 H         1 <0>         0.0000
     57 H18         7.4163   -3.8751    8.0171 H         1 <0>         0.0000
     58 H19         7.7223   -2.4244    8.9775 H         1 <0>         0.0000
     59 H20         9.0757   -3.4517    8.4743 H         1 <0>         0.0000
     60 H21        -5.3158    6.9599    3.9163 H         1 <0>         0.0000
     61 H22        -4.3425    8.1358    2.9632 H         1 <0>         0.0000
     62 H23         8.9871   -1.4161    7.0187 H         1 <0>         0.0000
     63 H24         8.6869   -2.8747    6.0966 H         1 <0>         0.0000
     64 H25        -1.1697    3.8686    4.6926 H         1 <0>         0.0000
     65 H26        -0.1641    5.0869    3.9178 H         1 <0>         0.0000
     66 H27         0.6170    3.3751    2.2412 H         1 <0>         0.0000
     67 H28        -0.3870    2.1563    3.0192 H         1 <0>         0.0000
     68 H29        -1.4677    4.8081    1.7848 H         1 <0>         0.0000
     69 H30        -2.4746    3.5878    2.5612 H         1 <0>         0.0000
     70 H31         1.9234    3.6616    4.3546 H         1 <0>         0.0000
     71 H32         0.9101    2.4283    5.1401 H         1 <0>         0.0000
     72 H33        -3.2849    5.2890    4.2203 H         1 <0>         0.0000
     73 H34        -2.2581    6.5283    3.4397 H         1 <0>         0.0000
     74 H35        10.2745    3.5415    9.3508 H         1 <0>         0.0000
@<TRIPOS>BOND
     1    1    3 ar
     2    1    2 ar
     3    1   40 1
     4    2    6 ar
     5    2   41 1
     6    3    7 ar
     7    3   42 1
     8    4    5 ar
     9    4   16 ar
    10    4   43 1
    11    5   17 ar
    12    5   44 1
    13    6   20 ar
    14    6   45 1
    15    7   20 ar
    16    7   46 1
    17    8   12 ar
    18    8   18 ar
    19    8   47 1
    20    9   13 ar
    21    9   18 ar
    22    9   48 1
    23   10   14 ar
    24   10   19 ar
    25   10   49 1
    26   11   15 ar
    27   11   19 ar
    28   11   50 1
    29   12   21 ar
    30   12   51 1
    31   13   21 ar
    32   13   52 1
    33   14   22 ar
    34   14   53 1
    35   15   22 ar
    36   15   54 1
    37   16   23 ar
    38   16   55 1
    39   17   34 ar
    40   17   56 1
    41   18   24 1
    42   19   24 1
    43   20   25 1
    44   21   37 1
    45   22   38 1
    46   23   27 1
    47   23   34 ar
    48   24   25 2
    49   25   28 1
    50   26   28 1
    51   26   57 1
    52   26   58 1
    53   26   59 1
    54   27   39 1
    55   27   60 1
    56   27   61 1
    57   28   62 1
    58   28   63 1
    59   29   30 1
    60   29   31 1
    61   29   64 1
    62   29   65 1
    63   30   32 1
    64   30   66 1
    65   30   67 1
    66   31   33 1
    67   31   68 1
    68   31   69 1
    69   32   38 1
    70   32   70 1
    71   32   71 1
    72   33   39 1
    73   33   72 1
    74   33   73 1
    75   35   39 2
    76   36   39 2
    77   37   74 1
