@<TRIPOS>MOLECULE
*****
   74    77     0     0     0
SMALL
NO_CHARGES

@<TRIPOS>ATOM
      1 C1          7.1788   -5.4735    5.4944 C.ar      1 <0>         0.0000
      2 C2          6.2757   -4.7750    6.3038 C.ar      1 <0>         0.0000
      3 C3          8.3066   -4.8126    4.9969 C.ar      1 <0>         0.0000
      4 C4         -9.2891   -1.2771   -0.8913 C.ar      1 <0>         0.0000
      5 C5        -10.1689   -2.1656   -0.2687 C.ar      1 <0>         0.0000
      6 C6          6.4942   -3.4297    6.6026 C.ar      1 <0>         0.0000
      7 C7          8.5268   -3.4676    5.3056 C.ar      1 <0>         0.0000
      8 C8          6.8629    2.1203    5.8828 C.ar      1 <0>         0.0000
      9 C9          7.2895    1.3035    8.1034 C.ar      1 <0>         0.0000
     10 C10         4.4101   -0.1614    5.9596 C.ar      1 <0>         0.0000
     11 C11         5.6463   -1.3175    4.2544 C.ar      1 <0>         0.0000
     12 C12         6.9739    3.4337    6.3308 C.ar      1 <0>         0.0000
     13 C13         7.3941    2.6161    8.5720 C.ar      1 <0>         0.0000
     14 C14         3.2154   -0.3931    5.2697 C.ar      1 <0>         0.0000
     15 C15         4.4717   -1.5470    3.5500 C.ar      1 <0>         0.0000
     16 C16        -8.1906   -0.8058   -0.1726 C.ar      1 <0>         0.0000
     17 C17        -9.9056   -2.5452    1.0505 C.ar      1 <0>         0.0000
     18 C18         7.0361    1.0270    6.7521 C.ar      1 <0>         0.0000
     19 C19         5.6420   -0.6308    5.4843 C.ar      1 <0>         0.0000
     20 C20         7.6172   -2.7491    6.1001 C.ar      1 <0>         0.0000
     21 C21         7.2429    3.6857    7.6827 C.ar      1 <0>         0.0000
     22 C22         3.2429   -1.0937    4.0564 C.ar      1 <0>         0.0000
     23 C23        -8.0134   -1.2504    1.1453 C.ar      1 <0>         0.0000
     24 C24         6.8962   -0.3680    6.2458 C.2       1 <0>         0.0000
     25 C25         7.8502   -1.3168    6.4439 C.2       1 <0>         0.0000
     26 C26         9.4525   -1.7045    8.3949 C.3       1 <0>         0.0000
     27 C27        -6.8385   -0.7916    1.9688 C.3       1 <0>         0.0000
     28 C28         9.2131   -1.0196    7.0384 C.3       1 <0>         0.0000
     29 C29        -1.5913   -0.9377    3.1445 C.3       1 <0>         0.0000
     30 C30        -0.1766   -1.3658    2.7392 C.3       1 <0>         0.0000
     31 C31        -2.6444   -1.3714    2.1165 C.3       1 <0>         0.0000
     32 C32         0.8660   -0.9308    3.7588 C.3       1 <0>         0.0000
     33 C33        -4.0482   -0.9367    2.5385 C.3       1 <0>         0.0000
     34 N1         -8.8519   -2.1055    1.7510 N.ar      1 <0>         0.0000
     35 O1         -4.9799   -0.7426    0.0385 O.2       1 <0>         0.0000
     36 O2         -5.3310   -2.9332    1.3033 O.2       1 <0>         0.0000
     37 O3          7.3362    4.9998    8.0771 O.3       1 <0>         0.0000
     38 O4          2.1410   -1.3730    3.2922 O.3       1 <0>         0.0000
     39 S1         -5.2686   -1.4633    1.2949 S.o2      1 <0>         0.0000
     40 H1          7.0076   -6.5204    5.2572 H         1 <0>         0.0000
     41 H2          5.3990   -5.2797    6.7023 H         1 <0>         0.0000
     42 H3          9.0152   -5.3440    4.3662 H         1 <0>         0.0000
     43 H4         -9.4528   -0.9586   -1.9174 H         1 <0>         0.0000
     44 H5        -11.0382   -2.5590   -0.7878 H         1 <0>         0.0000
     45 H6          5.7866   -2.8903    7.2252 H         1 <0>         0.0000
     46 H7          9.4030   -2.9662    4.9025 H         1 <0>         0.0000
     47 H8          6.6408    1.9328    4.8358 H         1 <0>         0.0000
     48 H9          7.3923    0.4809    8.8047 H         1 <0>         0.0000
     49 H10         4.3777    0.3942    6.8930 H         1 <0>         0.0000
     50 H11         6.5862   -1.6746    3.8465 H         1 <0>         0.0000
     51 H12         6.8524    4.2733    5.6525 H         1 <0>         0.0000
     52 H13         7.5852    2.8032    9.6279 H         1 <0>         0.0000
     53 H14         2.2848   -0.0204    5.6827 H         1 <0>         0.0000
     54 H15         4.4806   -2.0742    2.6003 H         1 <0>         0.0000
     55 H16        -7.4681   -0.1309   -0.6203 H         1 <0>         0.0000
     56 H17       -10.5686   -3.2353    1.5696 H         1 <0>         0.0000
     57 H18         9.3479   -2.7906    8.3128 H         1 <0>         0.0000
     58 H19         8.7331   -1.3586    9.1447 H         1 <0>         0.0000
     59 H20        10.4596   -1.4864    8.7663 H         1 <0>         0.0000
     60 H21        -6.9400   -1.1625    2.9899 H         1 <0>         0.0000
     61 H22        -6.7169    0.2948    1.9580 H         1 <0>         0.0000
     62 H23         9.3603    0.0579    7.1309 H         1 <0>         0.0000
     63 H24         9.9797   -1.3757    6.3378 H         1 <0>         0.0000
     64 H25        -1.8391   -1.3663    4.1249 H         1 <0>         0.0000
     65 H26        -1.6254    0.1536    3.2645 H         1 <0>         0.0000
     66 H27         0.0820   -0.9361    1.7648 H         1 <0>         0.0000
     67 H28        -0.1300   -2.4551    2.6288 H         1 <0>         0.0000
     68 H29        -2.4116   -0.9370    1.1391 H         1 <0>         0.0000
     69 H30        -2.6247   -2.4597    2.0004 H         1 <0>         0.0000
     70 H31         0.8670    0.1628    3.8694 H         1 <0>         0.0000
     71 H32         0.6541   -1.3723    4.7428 H         1 <0>         0.0000
     72 H33        -4.3495   -1.3980    3.4837 H         1 <0>         0.0000
     73 H34        -4.1294    0.1517    2.6181 H         1 <0>         0.0000
     74 H35         7.5291    5.0311    9.0275 H         1 <0>         0.0000
@<TRIPOS>BOND
     1    1    3 ar
     2    1    2 ar
     3    1   40 1
     4    2    6 ar
     5    2   41 1
     6    3    7 ar
     7    3   42 1
     8    4    5 ar
     9    4   16 ar
    10    4   43 1
    11    5   17 ar
    12    5   44 1
    13    6   20 ar
    14    6   45 1
    15    7   20 ar
    16    7   46 1
    17    8   12 ar
    18    8   18 ar
    19    8   47 1
    20    9   13 ar
    21    9   18 ar
    22    9   48 1
    23   10   14 ar
    24   10   19 ar
    25   10   49 1
    26   11   15 ar
    27   11   19 ar
    28   11   50 1
    29   12   21 ar
    30   12   51 1
    31   13   21 ar
    32   13   52 1
    33   14   22 ar
    34   14   53 1
    35   15   22 ar
    36   15   54 1
    37   16   23 ar
    38   16   55 1
    39   17   34 ar
    40   17   56 1
    41   18   24 1
    42   19   24 1
    43   20   25 1
    44   21   37 1
    45   22   38 1
    46   23   27 1
    47   23   34 ar
    48   24   25 2
    49   25   28 1
    50   26   28 1
    51   26   57 1
    52   26   58 1
    53   26   59 1
    54   27   39 1
    55   27   60 1
    56   27   61 1
    57   28   62 1
    58   28   63 1
    59   29   30 1
    60   29   31 1
    61   29   64 1
    62   29   65 1
    63   30   32 1
    64   30   66 1
    65   30   67 1
    66   31   33 1
    67   31   68 1
    68   31   69 1
    69   32   38 1
    70   32   70 1
    71   32   71 1
    72   33   39 1
    73   33   72 1
    74   33   73 1
    75   35   39 2
    76   36   39 2
    77   37   74 1
