@<TRIPOS>MOLECULE
*****
   48    50     0     0     0
SMALL
NO_CHARGES

@<TRIPOS>ATOM
      1 C1         -9.6728    7.2308   -3.9363 C.ar      1 <0>         0.0000
      2 C2         -8.3675    7.7118   -3.6487 C.ar      1 <0>         0.0000
      3 C3         -3.2230   -0.2896   -0.0204 C.ar      1 <0>         0.0000
      4 C4         -9.9936    5.9104   -3.7018 C.ar      1 <0>         0.0000
      5 C5         -9.2859    3.6495   -2.9054 C.ar      1 <0>         0.0000
      6 C6         -7.4054    6.8686   -3.1332 C.ar      1 <0>         0.0000
      7 C7         -3.6795   -1.5949    0.1449 C.ar      1 <0>         0.0000
      8 C8         -4.0520    0.7114   -0.5393 C.ar      1 <0>         0.0000
      9 C9         -8.2902    2.8499   -2.3903 C.ar      1 <0>         0.0000
     10 C10        -5.8590   -0.9171   -0.6907 C.ar      1 <0>         0.0000
     11 C11        -9.0231    5.0179   -3.1709 C.ar      1 <0>         0.0000
     12 C12        -7.7073    5.5024   -2.8815 C.ar      1 <0>         0.0000
     13 C13        -5.0094   -1.9054   -0.1904 C.ar      1 <0>         0.0000
     14 C14        -5.3728    0.3847   -0.8783 C.ar      1 <0>         0.0000
     15 C15        -7.0175    3.4296   -2.1398 C.ar      1 <0>         0.0000
     16 C16        -5.5795   -5.2390   -6.3363 C.3       1 <0>         0.0000
     17 C17        -5.8686    2.6232   -1.5736 C.3       1 <0>         0.0000
     18 C18        -4.9465   -4.5808   -5.1055 C.3       1 <0>         0.0000
     19 C19        -5.8582   -4.6542   -3.8727 C.3       1 <0>         0.0000
     20 C20        -5.2111   -3.9871   -2.6587 C.3       1 <0>         0.0000
     21 N1         -6.7303    4.6974   -2.3721 N.ar      1 <0>         0.0000
     22 N2         -5.4837   -3.2313    0.0152 N.pl3     1 <0>         0.0000
     23 O1         -6.3146   -5.4752   -0.7226 O.2       1 <0>         0.0000
     24 O2         -7.5329   -3.3744   -1.5202 O.2       1 <0>         0.0000
     25 O3         -6.2792    1.2716   -1.3890 O.3       1 <0>         0.0000
     26 S1         -6.2974   -4.0921   -1.2060 S.o2      1 <0>         0.0000
     27 H1        -10.4178    7.9100   -4.3421 H         1 <0>         0.0000
     28 H2         -8.1290    8.7552   -3.8382 H         1 <0>         0.0000
     29 H3         -2.1985   -0.0440    0.2456 H         1 <0>         0.0000
     30 H4        -10.9917    5.5368   -3.9198 H         1 <0>         0.0000
     31 H5        -10.2737    3.2424   -3.1108 H         1 <0>         0.0000
     32 H6         -6.4023    7.2181   -2.9070 H         1 <0>         0.0000
     33 H7         -3.0177   -2.3663    0.5313 H         1 <0>         0.0000
     34 H8         -3.6662    1.7155   -0.6667 H         1 <0>         0.0000
     35 H9         -8.4528    1.8008   -2.1740 H         1 <0>         0.0000
     36 H10        -6.8914   -1.1421   -0.9317 H         1 <0>         0.0000
     37 H11        -6.5237   -4.7512   -6.6027 H         1 <0>         0.0000
     38 H12        -4.9141   -5.1773   -7.2036 H         1 <0>         0.0000
     39 H13        -5.7928   -6.2978   -6.1520 H         1 <0>         0.0000
     40 H14        -5.0192    2.6774   -2.2659 H         1 <0>         0.0000
     41 H15        -5.5569    3.0638   -0.6182 H         1 <0>         0.0000
     42 H16        -3.9883   -5.0666   -4.8810 H         1 <0>         0.0000
     43 H17        -4.7172   -3.5306   -5.3272 H         1 <0>         0.0000
     44 H18        -6.0799   -5.7009   -3.6383 H         1 <0>         0.0000
     45 H19        -6.8127   -4.1622   -4.0859 H         1 <0>         0.0000
     46 H20        -4.2759   -4.4756   -2.3701 H         1 <0>         0.0000
     47 H21        -5.0271   -2.9224   -2.8267 H         1 <0>         0.0000
     48 H22        -4.8303   -3.8517    0.4873 H         1 <0>         0.0000
@<TRIPOS>BOND
     1    1    2 ar
     2    1    4 ar
     3    1   27 1
     4    2    6 ar
     5    2   28 1
     6    3    7 ar
     7    3    8 ar
     8    3   29 1
     9    4   11 ar
    10    4   30 1
    11    5    9 ar
    12    5   11 ar
    13    5   31 1
    14    6   12 ar
    15    6   32 1
    16    7   13 ar
    17    7   33 1
    18    8   14 ar
    19    8   34 1
    20    9   15 ar
    21    9   35 1
    22   10   13 ar
    23   10   14 ar
    24   10   36 1
    25   11   12 ar
    26   12   21 ar
    27   13   22 1
    28   14   25 1
    29   15   17 1
    30   15   21 ar
    31   16   18 1
    32   16   37 1
    33   16   38 1
    34   16   39 1
    35   17   25 1
    36   17   40 1
    37   17   41 1
    38   18   19 1
    39   18   42 1
    40   18   43 1
    41   19   20 1
    42   19   44 1
    43   19   45 1
    44   20   26 1
    45   20   46 1
    46   20   47 1
    47   22   26 1
    48   22   48 1
    49   23   26 2
    50   24   26 2
