@<TRIPOS>MOLECULE
*****
   51    53     0     0     0
SMALL
NO_CHARGES

@<TRIPOS>ATOM
      1 C1         -1.0061    4.2127   -1.7859 C.ar      1 <0>         0.0000
      2 C2          0.9745    3.4233   -2.8999 C.ar      1 <0>         0.0000
      3 C3         -0.9374    5.4174   -2.4870 C.ar      1 <0>         0.0000
      4 C4          1.0618    4.6234   -3.6079 C.ar      1 <0>         0.0000
      5 C5         -0.0606    3.1945   -1.9800 C.ar      1 <0>         0.0000
      6 C6          0.1009    5.6153   -3.4001 C.ar      1 <0>         0.0000
      7 C7         -4.3414   -3.9512   -2.5479 C.3       1 <0>         0.0000
      8 C8         -1.9214   -3.4538   -3.0133 C.3       1 <0>         0.0000
      9 C9         -3.0488   -2.4017   -1.0475 C.3       1 <0>         0.0000
     10 C10         1.0662    1.1929   -0.7570 C.3       1 <0>         0.0000
     11 C11        -0.2206    1.8944   -1.2248 C.3       1 <0>         0.0000
     12 C12        -3.2731   -3.7958   -3.6381 C.3       1 <0>         0.0000
     13 C13        -4.4230   -2.7199   -1.6366 C.3       1 <0>         0.0000
     14 C14        -0.9668    0.7477   -1.9761 C.3       1 <0>         0.0000
     15 C15        -0.6167   -0.4142   -1.0247 C.3       1 <0>         0.0000
     16 C16        -3.1340   -5.0538   -4.5046 C.3       1 <0>         0.0000
     17 C17        -5.4374   -2.8993   -0.5002 C.3       1 <0>         0.0000
     18 C18        -0.4973    0.5509   -3.4225 C.3       1 <0>         0.0000
     19 C19        -0.6484   -1.8291   -1.6010 C.3       1 <0>         0.0000
     20 N1         -2.0070   -2.2221   -2.1332 N.4       1 <0>         0.0000
     21 O1          0.7363   -0.2125   -0.6301 O.3       1 <0>         0.0000
     22 Cl1         0.2045    7.1202   -4.2831 Cl        1 <0>         0.0000
     23 H1         -1.8110    4.0703   -1.0678 H         1 <0>         0.0000
     24 H2          1.7348    2.6691   -3.0791 H         1 <0>         0.0000
     25 H3         -1.6739    6.1973   -2.3223 H         1 <0>         0.0000
     26 H4          1.8706    4.7904   -4.3122 H         1 <0>         0.0000
     27 H5         -5.3159   -4.1283   -3.0132 H         1 <0>         0.0000
     28 H6         -4.1176   -4.8394   -1.9414 H         1 <0>         0.0000
     29 H7         -1.5565   -4.2620   -2.3729 H         1 <0>         0.0000
     30 H8         -1.1655   -3.2458   -3.7738 H         1 <0>         0.0000
     31 H9         -3.0692   -1.4835   -0.4602 H         1 <0>         0.0000
     32 H10        -2.6867   -3.2141   -0.4110 H         1 <0>         0.0000
     33 H11         1.8877    1.2784   -1.4721 H         1 <0>         0.0000
     34 H12         1.4087    1.5645    0.2117 H         1 <0>         0.0000
     35 H13        -0.8169    2.1077   -0.3309 H         1 <0>         0.0000
     36 H14        -3.5616   -2.9602   -4.2928 H         1 <0>         0.0000
     37 H15        -4.7376   -1.8571   -2.2423 H         1 <0>         0.0000
     38 H16        -2.0440    0.9556   -1.9663 H         1 <0>         0.0000
     39 H17        -1.2647   -0.3572   -0.1369 H         1 <0>         0.0000
     40 H18        -2.8380   -5.9179   -3.9003 H         1 <0>         0.0000
     41 H19        -2.3904   -4.9196   -5.2965 H         1 <0>         0.0000
     42 H20        -4.0890   -5.2911   -4.9807 H         1 <0>         0.0000
     43 H21        -5.1643   -3.7427    0.1429 H         1 <0>         0.0000
     44 H22        -6.4309   -3.1006   -0.9096 H         1 <0>         0.0000
     45 H23        -5.5090   -2.0030    0.1239 H         1 <0>         0.0000
     46 H24         0.5659    0.3003   -3.4791 H         1 <0>         0.0000
     47 H25        -0.6544    1.4641   -3.9996 H         1 <0>         0.0000
     48 H26        -1.0495   -0.2438   -3.9419 H         1 <0>         0.0000
     49 H27        -0.3712   -2.5617   -0.8403 H         1 <0>         0.0000
     50 H28         0.0592   -1.9028   -2.4267 H         1 <0>         0.0000
     51 H29        -2.3279   -1.4540   -2.7327 H         1 <0>         0.0000
@<TRIPOS>BOND
     1    1    3 ar
     2    1    5 ar
     3    1   23 1
     4    2    4 ar
     5    2    5 ar
     6    2   24 1
     7    3    6 ar
     8    3   25 1
     9    4    6 ar
    10    4   26 1
    11    5   11 1
    12    6   22 1
    13    7   12 1
    14    7   13 1
    15    7   27 1
    16    7   28 1
    17    8   12 1
    18    8   20 1
    19    8   29 1
    20    8   30 1
    21    9   13 1
    22    9   20 1
    23    9   31 1
    24    9   32 1
    25   10   11 1
    26   10   21 1
    27   10   33 1
    28   10   34 1
    29   11   14 1
    30   11   35 1
    31   12   16 1
    32   12   36 1
    33   13   17 1
    34   13   37 1
    35   14   15 1
    36   14   18 1
    37   14   38 1
    38   15   19 1
    39   15   21 1
    40   15   39 1
    41   16   40 1
    42   16   41 1
    43   16   42 1
    44   17   43 1
    45   17   44 1
    46   17   45 1
    47   18   46 1
    48   18   47 1
    49   18   48 1
    50   19   20 1
    51   19   49 1
    52   19   50 1
    53   20   51 1
