@<TRIPOS>MOLECULE
*****
   19    20     0     0     0
SMALL
NO_CHARGES

@<TRIPOS>ATOM
      1 C1          1.3879   -0.0684    1.6522 C.ar      1 <0>         0.0000
      2 C2          0.2265   -0.4197    0.9733 C.ar      1 <0>         0.0000
      3 C3          1.6520   -0.6227    2.8997 C.ar      1 <0>         0.0000
      4 C4         -0.6317   -1.3224    1.5803 C.ar      1 <0>         0.0000
      5 C5         -1.2237   -4.3763    6.2050 C.2       1 <0>         0.0000
      6 C6         -0.3697   -4.4520    7.2853 C.2       1 <0>         0.0000
      7 C7          0.7299   -1.5161    3.4206 C.ar      1 <0>         0.0000
      8 C8          0.3198   -2.9853    5.5031 C.2       1 <0>         0.0000
      9 N1         -0.4092   -1.8816    2.7908 N.ar      1 <0>         0.0000
     10 N2         -0.8302   -3.5355    5.1823 N.2       1 <0>         0.0000
     11 N3          1.0130   -2.0721    4.6928 N.pl3     1 <0>         0.0000
     12 S1          0.9853   -3.4347    7.0197 S.3       1 <0>         0.0000
     13 H1          2.0856    0.6369    1.2103 H         1 <0>         0.0000
     14 H2         -0.0003   -0.0002   -0.0002 H         1 <0>         0.0000
     15 H3          2.5563   -0.3546    3.4362 H         1 <0>         0.0000
     16 H4         -1.5509   -1.6294    1.0922 H         1 <0>         0.0000
     17 H5         -2.1548   -4.9190    6.1124 H         1 <0>         0.0000
     18 H6         -0.4741   -5.0376    8.1875 H         1 <0>         0.0000
     19 H7          1.8854   -1.7420    5.0885 H         1 <0>         0.0000
@<TRIPOS>BOND
     1    1    2 ar
     2    1    3 ar
     3    1   13 1
     4    2    4 ar
     5    2   14 1
     6    3    7 ar
     7    3   15 1
     8    4    9 ar
     9    4   16 1
    10    5    6 2
    11    5   10 1
    12    5   17 1
    13    6   12 1
    14    6   18 1
    15    7    9 ar
    16    7   11 1
    17    8   10 2
    18    8   11 1
    19    8   12 1
    20   11   19 1
