@<TRIPOS>MOLECULE
*****
   19    19     0     0     0
SMALL
NO_CHARGES

@<TRIPOS>ATOM
      1 C1          0.0006   -0.7769    0.9697 C.3       1 <0>         0.0000
      2 C2          1.1199    0.0956   -0.5296 C.3       1 <0>         0.0000
      3 C3         -0.3468    0.2798   -0.0960 C.3       1 <0>         0.0000
      4 C4         -1.3613   -0.1951   -1.1304 C.3       1 <0>         0.0000
      5 C5         -0.4262    2.7373   -0.5465 C.3       1 <0>         0.0000
      6 C6         -0.6811    1.6575    0.4564 C.3       1 <0>         0.0000
      7 O1          1.2687   -1.0609    0.3299 O.3       1 <0>         0.0000
      8 H1          0.1522   -0.4072    1.9892 H         1 <0>         0.0000
      9 H2         -0.6425   -1.6616    0.9994 H         1 <0>         0.0000
     10 H3          1.2842   -0.1601   -1.5807 H         1 <0>         0.0000
     11 H4          1.8156    0.8896   -0.2389 H         1 <0>         0.0000
     12 H5         -2.3732   -0.0354   -0.7592 H         1 <0>         0.0000
     13 H6         -1.2200   -1.2571   -1.3292 H         1 <0>         0.0000
     14 H7         -1.2326    0.3599   -2.0593 H         1 <0>         0.0000
     15 H8          0.6264    2.7190   -0.8525 H         1 <0>         0.0000
     16 H9         -0.6385    3.7231   -0.1193 H         1 <0>         0.0000
     17 H10        -1.0423    2.5914   -1.4401 H         1 <0>         0.0000
     18 H11        -1.7339    1.6824    0.7568 H         1 <0>         0.0000
     19 H12        -0.0799    1.8450    1.3521 H         1 <0>         0.0000
@<TRIPOS>BOND
     1    1    3 1
     2    1    7 1
     3    1    8 1
     4    1    9 1
     5    2    3 1
     6    2    7 1
     7    2   10 1
     8    2   11 1
     9    3    4 1
    10    3    6 1
    11    4   12 1
    12    4   13 1
    13    4   14 1
    14    5    6 1
    15    5   15 1
    16    5   16 1
    17    5   17 1
    18    6   18 1
    19    6   19 1
