@<TRIPOS>MOLECULE
*****
   55    59     0     0     0
SMALL
NO_CHARGES

@<TRIPOS>ATOM
      1 C1          2.4703    4.7727    4.2712 C.ar      1 <0>         0.0000
      2 C2          1.0085    2.8508    4.3515 C.ar      1 <0>         0.0000
      3 C3          2.2570    1.1974   -0.1084 C.ar      1 <0>         0.0000
      4 C4          2.0706    2.5775   -0.0870 C.ar      1 <0>         0.0000
      5 C5          1.7509    5.2746    3.1868 C.ar      1 <0>         0.0000
      6 C6          0.2890    3.3527    3.2670 C.ar      1 <0>         0.0000
      7 C7         -0.3083    2.2333   -0.0375 C.ar      1 <0>         0.0000
      8 C8         -0.1635    0.8285   -0.0623 C.ar      1 <0>         0.0000
      9 C9          2.0991    3.5608    4.8536 C.ar      1 <0>         0.0000
     10 C10         1.1584    0.3156   -0.1059 C.ar      1 <0>         0.0000
     11 C11         0.7869    3.0968   -0.0535 C.ar      1 <0>         0.0000
     12 C12         0.6602    4.5647    2.6847 C.ar      1 <0>         0.0000
     13 C13         0.3100   -2.0163   -0.3543 C.2       1 <0>         0.0000
     14 C14        -1.0078   -1.4150   -0.7877 C.3       1 <0>         0.0000
     15 C15        -3.3756   -0.5173    0.8218 C.3       1 <0>         0.0000
     16 C16         3.3727   -3.0511   -1.9611 C.3       1 <0>         0.0000
     17 C17         4.6453   -2.6851   -1.2496 C.3       1 <0>         0.0000
     18 C18        -2.8396    0.3270   -0.3499 C.3       1 <0>         0.0000
     19 C19        -1.9652   -0.4667    1.4361 C.3       1 <0>         0.0000
     20 C20         3.4506   -1.7758   -1.1684 C.3       1 <0>         0.0000
     21 C21        -1.3988   -0.1679    0.0076 C.3       1 <0>         0.0000
     22 C22         2.8686    3.0235    6.0127 C.3       1 <0>         0.0000
     23 C23         2.6956   -1.6396    0.1099 C.3       1 <0>         0.0000
     24 N1          1.3534   -1.1102   -0.1241 N.am      1 <0>         0.0000
     25 N2          0.5851    4.5098   -0.0257 N.pl3     1 <0>         0.0000
     26 O1          0.4269   -3.2432   -0.3046 O.2       1 <0>         0.0000
     27 O2         -0.0523    6.6393    1.3012 O.2       1 <0>         0.0000
     28 O3         -1.5989    4.6644    1.3848 O.2       1 <0>         0.0000
     29 S1         -0.2542    5.2024    1.3100 S.o2      1 <0>         0.0000
     30 H1          3.3187    5.3326    4.6554 H         1 <0>         0.0000
     31 H2          0.7123    1.9055    4.7987 H         1 <0>         0.0000
     32 H3          3.2806    0.8351   -0.1407 H         1 <0>         0.0000
     33 H4          2.9364    3.2342   -0.0963 H         1 <0>         0.0000
     34 H5          2.0488    6.2196    2.7401 H         1 <0>         0.0000
     35 H6         -0.5588    2.7912    2.8836 H         1 <0>         0.0000
     36 H7         -1.3043    2.6673    0.0098 H         1 <0>         0.0000
     37 H8         -0.9208   -1.1749   -1.8557 H         1 <0>         0.0000
     38 H9         -1.7746   -2.1949   -0.7030 H         1 <0>         0.0000
     39 H10        -3.6994   -1.5234    0.5337 H         1 <0>         0.0000
     40 H11        -4.1659   -0.0522    1.4166 H         1 <0>         0.0000
     41 H12         3.3585   -2.9726   -3.0412 H         1 <0>         0.0000
     42 H13         2.7927   -3.8747   -1.5634 H         1 <0>         0.0000
     43 H14         4.9177   -3.2633   -0.3753 H         1 <0>         0.0000
     44 H15         5.4848   -2.3614   -1.8527 H         1 <0>         0.0000
     45 H16        -3.2178    0.0438   -1.3371 H         1 <0>         0.0000
     46 H17        -3.0305    1.3957   -0.2098 H         1 <0>         0.0000
     47 H18        -1.8358    0.3553    2.1508 H         1 <0>         0.0000
     48 H19        -1.6288   -1.3928    1.9111 H         1 <0>         0.0000
     49 H20         3.4906   -0.8434   -1.7185 H         1 <0>         0.0000
     50 H21         2.4424    3.3872    6.9557 H         1 <0>         0.0000
     51 H22         2.8554    1.9259    6.0254 H         1 <0>         0.0000
     52 H23         3.9224    3.3278    5.9668 H         1 <0>         0.0000
     53 H24         2.6138   -2.6280    0.5856 H         1 <0>         0.0000
     54 H25         3.2401   -0.9554    0.7773 H         1 <0>         0.0000
     55 H26         1.3651    5.0743   -0.3999 H         1 <0>         0.0000
@<TRIPOS>BOND
     1    1    5 ar
     2    1    9 ar
     3    1   30 1
     4    2    6 ar
     5    2    9 ar
     6    2   31 1
     7    3    4 ar
     8    3   10 ar
     9    3   32 1
    10    4   11 ar
    11    4   33 1
    12    5   12 ar
    13    5   34 1
    14    6   12 ar
    15    6   35 1
    16    7    8 ar
    17    7   11 ar
    18    7   36 1
    19    8   10 ar
    20    8   21 1
    21    9   22 1
    22   10   24 1
    23   11   25 1
    24   12   29 1
    25   13   14 1
    26   13   24 am
    27   13   26 2
    28   14   21 1
    29   14   37 1
    30   14   38 1
    31   15   19 1
    32   15   18 1
    33   15   39 1
    34   15   40 1
    35   16   17 1
    36   16   20 1
    37   16   41 1
    38   16   42 1
    39   17   20 1
    40   17   43 1
    41   17   44 1
    42   18   21 1
    43   18   45 1
    44   18   46 1
    45   19   21 1
    46   19   47 1
    47   19   48 1
    48   20   23 1
    49   20   49 1
    50   22   50 1
    51   22   51 1
    52   22   52 1
    53   23   24 1
    54   23   53 1
    55   23   54 1
    56   25   29 1
    57   25   55 1
    58   27   29 2
    59   28   29 2
