@<TRIPOS>MOLECULE
*****
   59    62     0     0     0
SMALL
NO_CHARGES

@<TRIPOS>ATOM
      1 C1          1.0098    1.8758    2.2974 C.ar      1 <0>         0.0000
      2 C2          1.2863    1.6744   -0.0956 C.ar      1 <0>         0.0000
      3 C3         -1.5025    0.2254    1.8544 C.ar      1 <0>         0.0000
      4 C4          2.3317    2.2963    2.4196 C.ar      1 <0>         0.0000
      5 C5          2.6063    2.0975    0.0195 C.ar      1 <0>         0.0000
      6 C6         -2.7986   -0.2483    1.7001 C.ar      1 <0>         0.0000
      7 C7         -1.8050   -3.6869    1.0534 C.ar      1 <0>         0.0000
      8 C8         -3.2483   -3.0033   -0.7700 C.ar      1 <0>         0.0000
      9 C9         -0.7644   -2.9188    0.5315 C.ar      1 <0>         0.0000
     10 C10        -2.2029   -2.2388   -1.3001 C.ar      1 <0>         0.0000
     11 C11        -1.7432    1.5290   -0.1568 C.ar      1 <0>         0.0000
     12 C12         0.4614    1.5597    1.0401 C.ar      1 <0>         0.0000
     13 C13        -0.9405    1.1072    0.9128 C.ar      1 <0>         0.0000
     14 C14         3.1412    2.4128    1.2786 C.ar      1 <0>         0.0000
     15 C15        -3.0576    1.0835   -0.3245 C.ar      1 <0>         0.0000
     16 C16        -3.5628    0.1579    0.6016 C.ar      1 <0>         0.0000
     17 C17        -3.0501   -3.7309    0.4083 C.ar      1 <0>         0.0000
     18 C18        -0.9813   -2.2059   -0.6434 C.ar      1 <0>         0.0000
     19 C19         4.5530    2.8569    1.3543 C.2       1 <0>         0.0000
     20 C20        -3.9260    1.5814   -1.4641 C.3       1 <0>         0.0000
     21 C21        -5.3911    1.1563   -1.2830 C.3       1 <0>         0.0000
     22 C22        -5.4138   -0.2993   -0.8252 C.3       1 <0>         0.0000
     23 C23        -6.7904   -0.9445   -0.7348 C.3       1 <0>         0.0000
     24 C24        -6.5498   -2.8357    0.8398 C.3       1 <0>         0.0000
     25 C25        -5.1792   -4.9374    0.3026 C.3       1 <0>         0.0000
     26 C26        -6.4347   -4.3597    0.9531 C.3       1 <0>         0.0000
     27 N1         -6.7147   -2.4047   -0.5576 N.3       1 <0>         0.0000
     28 O1          5.3051    2.9797    0.4015 O.2       1 <0>         0.0000
     29 O2         -4.8131   -0.3918    0.4818 O.3       1 <0>         0.0000
     30 O3          4.9648    3.1299    2.6271 O.3       1 <0>         0.0000
     31 O4         -6.5013   -4.7529    2.3259 O.3       1 <0>         0.0000
     32 O5         -4.0166   -4.4931    1.0268 O.3       1 <0>         0.0000
     33 F1          0.0276   -1.4487   -1.1565 F         1 <0>         0.0000
     34 H1          0.3830    1.8171    3.1829 H         1 <0>         0.0000
     35 H2          0.8946    1.3915   -1.0681 H         1 <0>         0.0000
     36 H3         -0.8992   -0.1365    2.6819 H         1 <0>         0.0000
     37 H4          2.7382    2.5459    3.3940 H         1 <0>         0.0000
     38 H5          3.2455    2.1763   -0.8545 H         1 <0>         0.0000
     39 H6         -3.2190   -0.9716    2.3917 H         1 <0>         0.0000
     40 H7         -1.6680   -4.2600    1.9655 H         1 <0>         0.0000
     41 H8         -4.2171   -2.9884   -1.2545 H         1 <0>         0.0000
     42 H9          0.2016   -2.8676    1.0240 H         1 <0>         0.0000
     43 H10        -2.3401   -1.6564   -2.2060 H         1 <0>         0.0000
     44 H11        -1.3432    2.2469   -0.8699 H         1 <0>         0.0000
     45 H12        -3.8487    2.6714   -1.5385 H         1 <0>         0.0000
     46 H13        -3.5483    1.1797   -2.4135 H         1 <0>         0.0000
     47 H14        -5.8865    1.7761   -0.5273 H         1 <0>         0.0000
     48 H15        -5.9408    1.2700   -2.2232 H         1 <0>         0.0000
     49 H16        -4.8086   -0.8959   -1.5186 H         1 <0>         0.0000
     50 H17        -7.3021   -0.7508   -1.6835 H         1 <0>         0.0000
     51 H18        -7.3693   -0.4481    0.0620 H         1 <0>         0.0000
     52 H19        -7.3866   -2.5161    1.4813 H         1 <0>         0.0000
     53 H20        -5.6451   -2.3755    1.2382 H         1 <0>         0.0000
     54 H21        -5.1277   -4.6724   -0.7532 H         1 <0>         0.0000
     55 H22        -5.1977   -6.0278    0.3966 H         1 <0>         0.0000
     56 H23        -7.3013   -4.8320    0.4723 H         1 <0>         0.0000
     57 H24        -7.5810   -2.8071   -0.9109 H         1 <0>         0.0000
     58 H25         5.8964    3.4090    2.5459 H         1 <0>         0.0000
     59 H26        -5.6387   -4.5349    2.7184 H         1 <0>         0.0000
@<TRIPOS>BOND
     1    1    4 ar
     2    1   12 ar
     3    1   34 1
     4    2    5 ar
     5    2   12 ar
     6    2   35 1
     7    3    6 ar
     8    3   13 ar
     9    3   36 1
    10    4   14 ar
    11    4   37 1
    12    5   14 ar
    13    5   38 1
    14    6   16 ar
    15    6   39 1
    16    7    9 ar
    17    7   17 ar
    18    7   40 1
    19    8   10 ar
    20    8   17 ar
    21    8   41 1
    22    9   18 ar
    23    9   42 1
    24   10   18 ar
    25   10   43 1
    26   11   13 ar
    27   11   15 ar
    28   11   44 1
    29   12   13 1
    30   14   19 1
    31   15   16 ar
    32   15   20 1
    33   16   29 1
    34   17   32 1
    35   18   33 1
    36   19   28 2
    37   19   30 1
    38   20   21 1
    39   20   45 1
    40   20   46 1
    41   21   22 1
    42   21   47 1
    43   21   48 1
    44   22   23 1
    45   22   29 1
    46   22   49 1
    47   23   27 1
    48   23   50 1
    49   23   51 1
    50   24   26 1
    51   24   27 1
    52   24   52 1
    53   24   53 1
    54   25   26 1
    55   25   32 1
    56   25   54 1
    57   25   55 1
    58   26   31 1
    59   26   56 1
    60   27   57 1
    61   30   58 1
    62   31   59 1
