@<TRIPOS>MOLECULE
*****
   53    57     0     0     0
SMALL
NO_CHARGES

@<TRIPOS>ATOM
      1 C1         -0.6418   -7.6044    1.6175 C.ar      1 <0>         0.0000
      2 C2         -1.7280   -8.1942    0.9582 C.ar      1 <0>         0.0000
      3 C3         -9.7197   -6.8493   -5.3322 C.ar      1 <0>         0.0000
      4 C4         -9.9575   -7.6917   -3.0770 C.ar      1 <0>         0.0000
      5 C5         -0.1678   -6.3631    1.1952 C.ar      1 <0>         0.0000
      6 C6         -2.3217   -7.5265   -0.1115 C.ar      1 <0>         0.0000
      7 C7        -10.4566   -7.9298   -5.8176 C.ar      1 <0>         0.0000
      8 C8        -10.6939   -8.7753   -3.5514 C.ar      1 <0>         0.0000
      9 C9         -9.4661   -6.7127   -3.9580 C.ar      1 <0>         0.0000
     10 C10        -0.7572   -5.6819    0.1172 C.ar      1 <0>         0.0000
     11 C11        -1.8477   -6.2767   -0.5414 C.ar      1 <0>         0.0000
     12 C12       -10.9431   -8.8836   -4.9220 C.ar      1 <0>         0.0000
     13 C13        -8.6669   -5.6086   -3.4140 C.2       1 <0>         0.0000
     14 C14        -7.7134   -3.5799   -3.1181 C.2       1 <0>         0.0000
     15 C15        -4.9223   -4.8876   -2.0252 C.2       1 <0>         0.0000
     16 C16        -0.1866   -4.3492   -0.3313 C.3       1 <0>         0.0000
     17 C17        -1.1542   -3.5442   -1.2040 C.3       1 <0>         0.0000
     18 C18        -1.7403   -4.4377   -2.2980 C.3       1 <0>         0.0000
     19 C19       -10.1694   -2.4779   -4.6951 C.3       1 <0>         0.0000
     20 C20       -10.8677   -3.7865   -4.9736 C.3       1 <0>         0.0000
     21 C21        -2.5623   -5.5809   -1.6879 C.3       1 <0>         0.0000
     22 C22        -9.3564   -3.7144   -4.9865 C.3       1 <0>         0.0000
     23 C23        -6.1865   -4.3592   -1.3194 C.3       1 <0>         0.0000
     24 N1         -7.8944   -5.7490   -2.3680 N.2       1 <0>         0.0000
     25 N2         -8.6226   -4.3073   -3.9055 N.am      1 <0>         0.0000
     26 N3         -7.3476   -4.5004   -2.1506 N.am      1 <0>         0.0000
     27 N4         -3.8648   -5.0980   -1.1943 N.am      1 <0>         0.0000
     28 O1         -7.3688   -2.4106   -3.2308 O.2       1 <0>         0.0000
     29 O2         -4.8817   -5.0690   -3.2378 O.2       1 <0>         0.0000
     30 Cl1       -11.8799  -10.2391   -5.5257 Cl        1 <0>         0.0000
     31 H1         -0.1691   -8.1110    2.4552 H         1 <0>         0.0000
     32 H2         -2.1037   -9.1635    1.2752 H         1 <0>         0.0000
     33 H3         -9.3262   -6.1255   -6.0365 H         1 <0>         0.0000
     34 H4         -9.7572   -7.5934   -2.0150 H         1 <0>         0.0000
     35 H5          0.6759   -5.9064    1.7092 H         1 <0>         0.0000
     36 H6         -3.1672   -7.9746   -0.6300 H         1 <0>         0.0000
     37 H7        -10.6452   -8.0351   -6.8813 H         1 <0>         0.0000
     38 H8        -11.0768   -9.5259   -2.8673 H         1 <0>         0.0000
     39 H9          0.1205   -3.7688    0.5459 H         1 <0>         0.0000
     40 H10         0.7309   -4.5427   -0.9044 H         1 <0>         0.0000
     41 H11        -1.9680   -3.1389   -0.5892 H         1 <0>         0.0000
     42 H12        -0.6355   -2.6862   -1.6440 H         1 <0>         0.0000
     43 H13        -2.3783   -3.8756   -2.9845 H         1 <0>         0.0000
     44 H14        -0.9275   -4.8730   -2.8936 H         1 <0>         0.0000
     45 H15       -10.1748   -1.7044   -5.4559 H         1 <0>         0.0000
     46 H16       -10.1519   -2.1113   -3.6752 H         1 <0>         0.0000
     47 H17       -11.3295   -4.3053   -4.1400 H         1 <0>         0.0000
     48 H18       -11.3661   -3.9295   -5.9275 H         1 <0>         0.0000
     49 H19        -2.7896   -6.3076   -2.4733 H         1 <0>         0.0000
     50 H20        -8.8507   -3.7576   -5.9478 H         1 <0>         0.0000
     51 H21        -6.3585   -4.8781   -0.3720 H         1 <0>         0.0000
     52 H22        -6.0565   -3.2920   -1.1188 H         1 <0>         0.0000
     53 H23        -3.9850   -4.9906   -0.1954 H         1 <0>         0.0000
@<TRIPOS>BOND
     1    1    2 ar
     2    1    5 ar
     3    1   31 1
     4    2    6 ar
     5    2   32 1
     6    3    7 ar
     7    3    9 ar
     8    3   33 1
     9    4    8 ar
    10    4    9 ar
    11    4   34 1
    12    5   10 ar
    13    5   35 1
    14    6   11 ar
    15    6   36 1
    16    7   12 ar
    17    7   37 1
    18    8   12 ar
    19    8   38 1
    20    9   13 1
    21   10   11 ar
    22   10   16 1
    23   11   21 1
    24   12   30 1
    25   13   24 2
    26   13   25 1
    27   14   25 am
    28   14   26 am
    29   14   28 2
    30   15   23 1
    31   15   27 am
    32   15   29 2
    33   16   17 1
    34   16   39 1
    35   16   40 1
    36   17   18 1
    37   17   41 1
    38   17   42 1
    39   18   21 1
    40   18   43 1
    41   18   44 1
    42   19   20 1
    43   19   22 1
    44   19   45 1
    45   19   46 1
    46   20   22 1
    47   20   47 1
    48   20   48 1
    49   21   27 1
    50   21   49 1
    51   22   25 1
    52   22   50 1
    53   23   26 1
    54   23   51 1
    55   23   52 1
    56   24   26 1
    57   27   53 1
