@<TRIPOS>MOLECULE
*****
   68    72     0     0     0
SMALL
NO_CHARGES

@<TRIPOS>ATOM
      1 C1          8.4797    1.7966   -4.3716 C.ar      1 <0>         0.0000
      2 C2          7.6426    2.8941   -4.5970 C.ar      1 <0>         0.0000
      3 C3          8.3833    1.0784   -3.1737 C.ar      1 <0>         0.0000
      4 C4        -13.5207   -2.5173   -2.0014 C.ar      1 <0>         0.0000
      5 C5         -1.0742    0.5235   -0.7191 C.ar      1 <0>         0.0000
      6 C6          0.4893    3.8442   -1.3094 C.ar      1 <0>         0.0000
      7 C7          1.2417    2.1909    0.2882 C.ar      1 <0>         0.0000
      8 C8          6.7208    3.2826   -3.6220 C.ar      1 <0>         0.0000
      9 C9          7.4558    1.4575   -2.2035 C.ar      1 <0>         0.0000
     10 C10       -12.4029   -1.8216   -2.4637 C.ar      1 <0>         0.0000
     11 C11        -2.2765   -0.1574   -0.8686 C.ar      1 <0>         0.0000
     12 C12         1.6897    4.5361   -1.1705 C.ar      1 <0>         0.0000
     13 C13         2.4497    2.8674    0.4387 C.ar      1 <0>         0.0000
     14 C14        -2.2460    2.6182   -0.9023 C.ar      1 <0>         0.0000
     15 C15       -14.0730   -2.1471   -0.7713 C.ar      1 <0>         0.0000
     16 C16       -12.5132   -0.4938   -0.4724 C.ar      1 <0>         0.0000
     17 C17         0.2437    2.6605   -0.5866 C.ar      1 <0>         0.0000
     18 C18        -1.0347    1.9307   -0.7394 C.ar      1 <0>         0.0000
     19 C19         6.6269    2.5692   -2.4166 C.ar      1 <0>         0.0000
     20 C20        -3.4704    1.9588   -1.0472 C.ar      1 <0>         0.0000
     21 C21       -11.8739   -0.7873   -1.6855 C.ar      1 <0>         0.0000
     22 C22        -3.4724    0.5534   -1.0372 C.ar      1 <0>         0.0000
     23 C23         2.6602    4.0344   -0.2992 C.ar      1 <0>         0.0000
     24 C24         5.6564    2.9167   -1.3300 C.2       1 <0>         0.0000
     25 C25        -4.7709    2.7227   -1.1805 C.3       1 <0>         0.0000
     26 C26        -5.9623    1.8160   -0.8621 C.3       1 <0>         0.0000
     27 C27        -5.8041    0.4897   -1.5958 C.3       1 <0>         0.0000
     28 C28        -6.9477   -0.4940   -1.3607 C.3       1 <0>         0.0000
     29 C29        -9.3633   -0.8245   -1.6818 C.3       1 <0>         0.0000
     30 C30       -10.6246   -0.0532   -2.1130 C.3       1 <0>         0.0000
     31 N1        -13.5883   -1.1523   -0.0152 N.ar      1 <0>         0.0000
     32 N2          5.1911    4.2285   -1.3416 N.am      1 <0>         0.0000
     33 N3         -8.1818   -0.0083   -1.9853 N.3       1 <0>         0.0000
     34 O1          5.2793    2.1065   -0.4938 O.2       1 <0>         0.0000
     35 O2          4.7605    4.6498    1.1936 O.2       1 <0>         0.0000
     36 O3          4.0312    6.2912   -0.6176 O.2       1 <0>         0.0000
     37 O4         -4.6137   -0.1977   -1.1659 O.3       1 <0>         0.0000
     38 O5        -10.5964    1.2481   -1.5414 O.3       1 <0>         0.0000
     39 S1          4.1924    4.9226   -0.1190 S.o2      1 <0>         0.0000
     40 H1          9.1996    1.4983   -5.1292 H         1 <0>         0.0000
     41 H2          7.7026    3.4426   -5.5330 H         1 <0>         0.0000
     42 H3          9.0297    0.2225   -2.9991 H         1 <0>         0.0000
     43 H4        -13.9614   -3.3243   -2.5801 H         1 <0>         0.0000
     44 H5         -0.1527   -0.0427   -0.6184 H         1 <0>         0.0000
     45 H6         -0.2583    4.2137   -2.0050 H         1 <0>         0.0000
     46 H7          1.0603    1.2982    0.8793 H         1 <0>         0.0000
     47 H8          6.0548    4.1161   -3.8296 H         1 <0>         0.0000
     48 H9          7.3577    0.9073   -1.2731 H         1 <0>         0.0000
     49 H10       -11.9529   -2.0753   -3.4221 H         1 <0>         0.0000
     50 H11        -2.3113   -1.2430   -0.8692 H         1 <0>         0.0000
     51 H12         1.8761    5.4521   -1.7221 H         1 <0>         0.0000
     52 H13         3.2191    2.5058    1.1107 H         1 <0>         0.0000
     53 H14        -2.2489    3.7058   -0.8755 H         1 <0>         0.0000
     54 H15       -14.9454   -2.6682   -0.3792 H         1 <0>         0.0000
     55 H16       -12.1415    0.3210    0.1433 H         1 <0>         0.0000
     56 H17        -4.7613    3.5927   -0.5159 H         1 <0>         0.0000
     57 H18        -4.8686    3.1131   -2.2020 H         1 <0>         0.0000
     58 H19        -6.0117    1.6139    0.2144 H         1 <0>         0.0000
     59 H20        -6.9058    2.2816   -1.1581 H         1 <0>         0.0000
     60 H21        -5.7052    0.6827   -2.6764 H         1 <0>         0.0000
     61 H22        -7.1191   -0.5884   -0.2835 H         1 <0>         0.0000
     62 H23        -6.6400   -1.4851   -1.7295 H         1 <0>         0.0000
     63 H24        -9.3449   -1.8193   -2.1541 H         1 <0>         0.0000
     64 H25        -9.4046   -0.9735   -0.5979 H         1 <0>         0.0000
     65 H26       -10.6238    0.0241   -3.2143 H         1 <0>         0.0000
     66 H27         5.6348    4.9385   -1.9164 H         1 <0>         0.0000
     67 H28        -8.0521    0.0173   -2.9969 H         1 <0>         0.0000
     68 H29        -9.6493    1.4895   -1.5241 H         1 <0>         0.0000
@<TRIPOS>BOND
     1    1    3 ar
     2    1    2 ar
     3    1   40 1
     4    2    8 ar
     5    2   41 1
     6    3    9 ar
     7    3   42 1
     8    4   10 ar
     9    4   15 ar
    10    4   43 1
    11    5   11 ar
    12    5   18 ar
    13    5   44 1
    14    6   12 ar
    15    6   17 ar
    16    6   45 1
    17    7   13 ar
    18    7   17 ar
    19    7   46 1
    20    8   19 ar
    21    8   47 1
    22    9   19 ar
    23    9   48 1
    24   10   21 ar
    25   10   49 1
    26   11   22 ar
    27   11   50 1
    28   12   23 ar
    29   12   51 1
    30   13   23 ar
    31   13   52 1
    32   14   18 ar
    33   14   20 ar
    34   14   53 1
    35   15   31 ar
    36   15   54 1
    37   16   21 ar
    38   16   31 ar
    39   16   55 1
    40   17   18 1
    41   19   24 1
    42   20   22 ar
    43   20   25 1
    44   21   30 1
    45   22   37 1
    46   23   39 1
    47   24   32 am
    48   24   34 2
    49   25   26 1
    50   25   56 1
    51   25   57 1
    52   26   27 1
    53   26   58 1
    54   26   59 1
    55   27   28 1
    56   27   37 1
    57   27   60 1
    58   28   33 1
    59   28   61 1
    60   28   62 1
    61   29   30 1
    62   29   33 1
    63   29   63 1
    64   29   64 1
    65   30   38 1
    66   30   65 1
    67   32   39 1
    68   32   66 1
    69   33   67 1
    70   35   39 2
    71   36   39 2
    72   38   68 1
