@<TRIPOS>MOLECULE
*****
   69    73     0     0     0
SMALL
NO_CHARGES

@<TRIPOS>ATOM
      1 C1          2.6879   -7.0636   -4.4085 C.ar      1 <0>         0.0000
      2 C2          4.4764   -6.5489   -5.9280 C.ar      1 <0>         0.0000
      3 C3         -3.1446  -16.8666   -5.7492 C.ar      1 <0>         0.0000
      4 C4         -1.9299  -16.6933   -6.3894 C.ar      1 <0>         0.0000
      5 C5          3.2909   -6.2797   -3.4243 C.ar      1 <0>         0.0000
      6 C6          5.1022   -5.7734   -4.9515 C.ar      1 <0>         0.0000
      7 C7         -2.6921  -15.0033   -4.2824 C.ar      1 <0>         0.0000
      8 C8         -1.4549  -14.8154   -4.9242 C.ar      1 <0>         0.0000
      9 C9          3.2707   -7.2118   -5.6748 C.ar      1 <0>         0.0000
     10 C10        -3.5473  -16.0236   -4.6820 C.ar      1 <0>         0.0000
     11 C11        -1.0643  -15.6556   -5.9789 C.ar      1 <0>         0.0000
     12 C12         4.5060   -5.6387   -3.6885 C.ar      1 <0>         0.0000
     13 C13        -0.5434  -13.7447   -4.5257 C.2       1 <0>         0.0000
     14 C14         2.6387   -7.9983   -6.7922 C.2       1 <0>         0.0000
     15 C15         3.6635  -10.4394   -5.5980 C.2       1 <0>         0.0000
     16 C16         8.6815   -3.2928    0.7172 C.3       1 <0>         0.0000
     17 C17         8.5484   -2.2564   -0.4080 C.3       1 <0>         0.0000
     18 C18         7.3736   -4.0736    0.9105 C.3       1 <0>         0.0000
     19 C19         1.1730   -9.9102   -7.6728 C.3       1 <0>         0.0000
     20 C20         8.0748   -2.9037   -1.7176 C.3       1 <0>         0.0000
     21 C21         6.9053   -4.7187   -0.4008 C.3       1 <0>         0.0000
     22 C22         1.2211  -11.3967   -7.2510 C.3       1 <0>         0.0000
     23 C23         1.6398   -9.0975   -6.4338 C.3       1 <0>         0.0000
     24 C24         2.1409  -10.1411   -5.4100 C.3       1 <0>         0.0000
     25 C25         6.7630   -3.6826   -1.5271 C.3       1 <0>         0.0000
     26 C26         1.2359  -11.3563   -5.7140 C.3       1 <0>         0.0000
     27 C27        -4.8783  -16.2489   -4.0039 C.3       1 <0>         0.0000
     28 C28         1.6464  -12.6641   -5.0359 C.3       1 <0>         0.0000
     29 C29         6.3299   -4.3282   -2.8386 C.3       1 <0>         0.0000
     30 N1          0.1507  -15.5100   -6.6393 N.2       1 <0>         0.0000
     31 N2          0.9495  -14.5759   -6.2909 N.2       1 <0>         0.0000
     32 N3          0.6345  -13.7203   -5.2843 N.am      1 <0>         0.0000
     33 O1          4.2493   -9.7178   -6.4597 O.co2     1 <0>         0.0000
     34 O2         -0.7558  -12.9357   -3.6225 O.2       1 <0>         0.0000
     35 O3          2.7651   -7.5910   -7.9484 O.2       1 <0>         0.0000
     36 O4          4.1478  -11.3468   -4.8749 O.co2     1 <0>         0.0000
     37 O5          5.0382   -4.8976   -2.6536 O.3       1 <0>         0.0000
     38 H1          1.7501   -7.5591   -4.1771 H         1 <0>         0.0000
     39 H2          4.9293   -6.6731   -6.9061 H         1 <0>         0.0000
     40 H3         -3.8098  -17.6666   -6.0693 H         1 <0>         0.0000
     41 H4         -1.6166  -17.3357   -7.2074 H         1 <0>         0.0000
     42 H5          2.8403   -6.1634   -2.4421 H         1 <0>         0.0000
     43 H6          6.0480   -5.2935   -5.1787 H         1 <0>         0.0000
     44 H7         -2.9546  -14.3286   -3.4724 H         1 <0>         0.0000
     45 H8          8.9767   -2.8011    1.6526 H         1 <0>         0.0000
     46 H9          9.4865   -3.9971    0.4639 H         1 <0>         0.0000
     47 H10         7.8238   -1.4874   -0.1052 H         1 <0>         0.0000
     48 H11         9.5040   -1.7416   -0.5669 H         1 <0>         0.0000
     49 H12         7.5005   -4.8416    1.6831 H         1 <0>         0.0000
     50 H13         6.5951   -3.3884    1.2751 H         1 <0>         0.0000
     51 H14         1.8290   -9.7010   -8.5187 H         1 <0>         0.0000
     52 H15         0.1602   -9.6145   -7.9682 H         1 <0>         0.0000
     53 H16         7.9482   -2.1367   -2.4923 H         1 <0>         0.0000
     54 H17         8.8519   -3.5915   -2.0813 H         1 <0>         0.0000
     55 H18         7.6356   -5.4797   -0.7122 H         1 <0>         0.0000
     56 H19         5.9534   -5.2387   -0.2592 H         1 <0>         0.0000
     57 H20         0.3860  -11.9800   -7.6554 H         1 <0>         0.0000
     58 H21         2.1470  -11.8623   -7.6047 H         1 <0>         0.0000
     59 H22         0.7693   -8.5772   -6.0040 H         1 <0>         0.0000
     60 H23         2.0005   -9.8200   -4.3727 H         1 <0>         0.0000
     61 H24         5.9780   -2.9683   -1.2393 H         1 <0>         0.0000
     62 H25         0.2257  -11.1085   -5.3597 H         1 <0>         0.0000
     63 H26        -4.9073  -17.2261   -3.5071 H         1 <0>         0.0000
     64 H27        -5.0750  -15.4829   -3.2494 H         1 <0>         0.0000
     65 H28        -5.7003  -16.2292   -4.7287 H         1 <0>         0.0000
     66 H29         1.7255  -12.5351   -3.9569 H         1 <0>         0.0000
     67 H30         2.5971  -13.0311   -5.4125 H         1 <0>         0.0000
     68 H31         7.0475   -5.1082   -3.1320 H         1 <0>         0.0000
     69 H32         6.2993   -3.5770   -3.6418 H         1 <0>         0.0000
@<TRIPOS>BOND
     1    1    5 ar
     2    1    9 ar
     3    1   38 1
     4    2    6 ar
     5    2    9 ar
     6    2   39 1
     7    3    4 ar
     8    3   10 ar
     9    3   40 1
    10    4   11 ar
    11    4   41 1
    12    5   12 ar
    13    5   42 1
    14    6   12 ar
    15    6   43 1
    16    7    8 ar
    17    7   10 ar
    18    7   44 1
    19    8   11 ar
    20    8   13 1
    21    9   14 1
    22   10   27 1
    23   11   30 1
    24   12   37 1
    25   13   32 am
    26   13   34 2
    27   14   23 1
    28   14   35 2
    29   15   24 1
    30   15   33 1
    31   15   36 2
    32   16   18 1
    33   16   17 1
    34   16   45 1
    35   16   46 1
    36   17   20 1
    37   17   47 1
    38   17   48 1
    39   18   21 1
    40   18   49 1
    41   18   50 1
    42   19   22 1
    43   19   23 1
    44   19   51 1
    45   19   52 1
    46   20   25 1
    47   20   53 1
    48   20   54 1
    49   21   25 1
    50   21   55 1
    51   21   56 1
    52   22   26 1
    53   22   57 1
    54   22   58 1
    55   23   24 1
    56   23   59 1
    57   24   26 1
    58   24   60 1
    59   25   29 1
    60   25   61 1
    61   26   28 1
    62   26   62 1
    63   27   63 1
    64   27   64 1
    65   27   65 1
    66   28   32 1
    67   28   66 1
    68   28   67 1
    69   29   37 1
    70   29   68 1
    71   29   69 1
    72   30   31 2
    73   31   32 1
