@<TRIPOS>MOLECULE
*****
   51    54     0     0     0
SMALL
NO_CHARGES

@<TRIPOS>ATOM
      1 C1          4.2111    2.6691   -2.4158 C.ar      1 <0>         0.0000
      2 C2         -1.6446    0.4012   -0.3956 C.ar      1 <0>         0.0000
      3 C3          5.4454    2.9732   -1.8825 C.ar      1 <0>         0.0000
      4 C4          3.4460    1.5706   -1.9532 C.ar      1 <0>         0.0000
      5 C5         -1.4841    1.4889    0.4677 C.ar      1 <0>         0.0000
      6 C6          0.9170    1.1653    0.3868 C.ar      1 <0>         0.0000
      7 C7          5.8689    0.2243    0.5806 C.ar      1 <0>         0.0000
      8 C8          5.2268    1.0207   -0.4016 C.ar      1 <0>         0.0000
      9 C9         -0.5471   -0.3144   -0.8835 C.ar      1 <0>         0.0000
     10 C10         0.7406    0.0841   -0.4760 C.ar      1 <0>         0.0000
     11 C11         5.9712    2.1507   -0.8540 C.ar      1 <0>         0.0000
     12 C12         3.9324    0.7404   -0.9536 C.ar      1 <0>         0.0000
     13 C13        -0.1980    1.8633    0.8497 C.ar      1 <0>         0.0000
     14 C14         7.6654    1.6446    0.6180 C.ar      1 <0>         0.0000
     15 C15         0.3184   -2.6223   -1.5372 C.3       1 <0>         0.0000
     16 C16         1.9185   -0.7217   -0.9869 C.3       1 <0>         0.0000
     17 C17        -0.6846   -1.4722   -1.8709 C.3       1 <0>         0.0000
     18 C18         1.6530   -2.2460   -0.8529 C.3       1 <0>         0.0000
     19 C19         8.9988    1.9643    1.2347 C.3       1 <0>         0.0000
     20 C20        -0.4379   -0.9323   -3.3040 C.3       1 <0>         0.0000
     21 C21        -2.0945   -2.0922   -1.8512 C.3       1 <0>         0.0000
     22 C22         1.6055   -2.7304    0.6211 C.3       1 <0>         0.0000
     23 N1          7.0512    0.5123    1.0872 N.ar      1 <0>         0.0000
     24 N2          7.1920    2.4471   -0.3178 N.ar      1 <0>         0.0000
     25 N3          3.2347   -0.3810   -0.4723 N.pl3     1 <0>         0.0000
     26 O1          2.7042   -2.9528   -1.4888 O.3       1 <0>         0.0000
     27 F1          1.4439   -4.0663    0.6885 F         1 <0>         0.0000
     28 F2          2.7603   -2.4462    1.2943 F         1 <0>         0.0000
     29 F3          0.5976   -2.1649    1.3244 F         1 <0>         0.0000
     30 Cl1         0.0286    3.2301    1.9283 Cl        1 <0>         0.0000
     31 H1          3.7917    3.2967   -3.1979 H         1 <0>         0.0000
     32 H2         -2.6524    0.1171   -0.6785 H         1 <0>         0.0000
     33 H3          6.0288    3.8244   -2.2175 H         1 <0>         0.0000
     34 H4          2.4574    1.4165   -2.3699 H         1 <0>         0.0000
     35 H5         -2.3459    2.0347    0.8384 H         1 <0>         0.0000
     36 H6          1.9094    1.4746    0.6946 H         1 <0>         0.0000
     37 H7          5.4053   -0.6916    0.9476 H         1 <0>         0.0000
     38 H8         -0.1981   -3.3587   -0.9194 H         1 <0>         0.0000
     39 H9          0.5911   -3.1375   -2.4612 H         1 <0>         0.0000
     40 H10         1.9910   -0.5960   -2.0691 H         1 <0>         0.0000
     41 H11         9.6945    1.1342    1.0736 H         1 <0>         0.0000
     42 H12         9.4106    2.8774    0.8038 H         1 <0>         0.0000
     43 H13         8.8914    2.0835    2.3178 H         1 <0>         0.0000
     44 H14        -0.5581   -1.7368   -4.0377 H         1 <0>         0.0000
     45 H15         0.5622   -0.5126   -3.4376 H         1 <0>         0.0000
     46 H16        -1.1594   -0.1438   -3.5388 H         1 <0>         0.0000
     47 H17        -2.1153   -2.9832   -2.4874 H         1 <0>         0.0000
     48 H18        -2.8499   -1.4022   -2.2388 H         1 <0>         0.0000
     49 H19        -2.3848   -2.3918   -0.8392 H         1 <0>         0.0000
     50 H20         3.3332   -0.5269    0.5252 H         1 <0>         0.0000
     51 H21         3.5306   -2.4854   -1.2591 H         1 <0>         0.0000
@<TRIPOS>BOND
     1    1    3 ar
     2    1    4 ar
     3    1   31 1
     4    2    5 ar
     5    2    9 ar
     6    2   32 1
     7    3   11 ar
     8    3   33 1
     9    4   12 ar
    10    4   34 1
    11    5   13 ar
    12    5   35 1
    13    6   10 ar
    14    6   13 ar
    15    6   36 1
    16    7    8 ar
    17    7   23 ar
    18    7   37 1
    19    8   11 ar
    20    8   12 ar
    21    9   10 ar
    22    9   17 1
    23   10   16 1
    24   11   24 ar
    25   12   25 1
    26   13   30 1
    27   14   19 1
    28   14   23 ar
    29   14   24 ar
    30   15   17 1
    31   15   18 1
    32   15   38 1
    33   15   39 1
    34   16   18 1
    35   16   25 1
    36   16   40 1
    37   17   20 1
    38   17   21 1
    39   18   22 1
    40   18   26 1
    41   19   41 1
    42   19   42 1
    43   19   43 1
    44   20   44 1
    45   20   45 1
    46   20   46 1
    47   21   47 1
    48   21   48 1
    49   21   49 1
    50   22   27 1
    51   22   28 1
    52   22   29 1
    53   25   50 1
    54   26   51 1
