@<TRIPOS>MOLECULE
*****
   28    29     0     0     0
SMALL
NO_CHARGES

@<TRIPOS>ATOM
      1 C1         -0.7671    0.1975    0.7446 C.ar      1 <0>         0.0000
      2 C2         -1.8022   -0.7245    0.9247 C.ar      1 <0>         0.0000
      3 C3         -1.6773    1.6439    2.4698 C.ar      1 <0>         0.0000
      4 C4         -3.8586    0.6897    3.5356 C.2       1 <0>         0.0000
      5 C5         -2.7304    0.7292    2.6692 C.ar      1 <0>         0.0000
      6 C6         -0.7036    1.3640    1.5041 C.ar      1 <0>         0.0000
      7 C7         -2.7685   -0.4315    1.8936 C.ar      1 <0>         0.0000
      8 C8         -4.5471   -0.4724    3.2738 C.2       1 <0>         0.0000
      9 C9         -5.7442   -0.9514    3.8892 C.2       1 <0>         0.0000
     10 C10         1.2949    2.4989    2.5393 C.3       1 <0>         0.0000
     11 C11        -0.0800    3.7037    0.8035 C.3       1 <0>         0.0000
     12 C12         0.4151    2.3281    1.2870 C.3       1 <0>         0.0000
     13 N1         -3.8818   -1.1421    2.2822 N.pl3     1 <0>         0.0000
     14 O1         -6.3908   -0.3829    4.7960 O.2       1 <0>         0.0000
     15 O2         -6.1711   -2.1550    3.3896 O.3       1 <0>         0.0000
     16 H1         -0.0043   -0.0088   -0.0030 H         1 <0>         0.0000
     17 H2         -1.8508   -1.6324    0.3329 H         1 <0>         0.0000
     18 H3         -1.6240    2.5548    3.0601 H         1 <0>         0.0000
     19 H4         -4.1335    1.4347    4.2705 H         1 <0>         0.0000
     20 H5          0.7164    2.8736    3.3908 H         1 <0>         0.0000
     21 H6          2.1147    3.2028    2.3591 H         1 <0>         0.0000
     22 H7          1.7353    1.5390    2.8316 H         1 <0>         0.0000
     23 H8         -0.7562    4.1485    1.5421 H         1 <0>         0.0000
     24 H9         -0.6249    3.6223   -0.1434 H         1 <0>         0.0000
     25 H10         0.7512    4.4005    0.6493 H         1 <0>         0.0000
     26 H11         1.0859    1.9497    0.4928 H         1 <0>         0.0000
     27 H12        -4.1641   -2.0297    1.8896 H         1 <0>         0.0000
     28 H13        -6.9933   -2.4922    3.8051 H         1 <0>         0.0000
@<TRIPOS>BOND
     1    1    2 ar
     2    1    6 ar
     3    1   16 1
     4    2    7 ar
     5    2   17 1
     6    3    5 ar
     7    3    6 ar
     8    3   18 1
     9    4    5 1
    10    4    8 2
    11    4   19 1
    12    5    7 ar
    13    6   12 1
    14    7   13 1
    15    8    9 1
    16    8   13 1
    17    9   14 2
    18    9   15 1
    19   10   12 1
    20   10   20 1
    21   10   21 1
    22   10   22 1
    23   11   12 1
    24   11   23 1
    25   11   24 1
    26   11   25 1
    27   12   26 1
    28   13   27 1
    29   15   28 1
