@<TRIPOS>MOLECULE
*****
   29    30     0     0     0
SMALL
NO_CHARGES

@<TRIPOS>ATOM
      1 C1         -0.0844    2.5383   -1.1592 C.ar      1 <0>         0.0000
      2 C2         -1.1716    2.6327   -0.2810 C.ar      1 <0>         0.0000
      3 C3          0.5160    1.3012   -1.4005 C.ar      1 <0>         0.0000
      4 C4         -1.6652    1.4999    0.3739 C.ar      1 <0>         0.0000
      5 C5          0.0134    0.1741   -0.7507 C.ar      1 <0>         0.0000
      6 C6         -1.0626    0.2686    0.1393 C.ar      1 <0>         0.0000
      7 C7          0.2429   -2.1563   -0.2169 C.cat     1 <0>         0.0000
      8 C8         -0.5634   -1.8567    1.0346 C.3       1 <0>         0.0000
      9 C9          0.5286   -0.7116    4.6118 C.3       1 <0>         0.0000
     10 C10         0.3694   -1.4373    2.1838 C.3       1 <0>         0.0000
     11 C11        -0.4055   -1.1338    3.4734 C.3       1 <0>         0.0000
     12 N1          0.5355   -1.1313   -0.9985 N.pl3     1 <0>         0.0000
     13 N2          0.6524   -3.3971   -0.4666 N.pl3     1 <0>         0.0000
     14 O1         -1.5565   -0.8787    0.7232 O.3       1 <0>         0.0000
     15 H1          0.2948    3.4249   -1.6565 H         1 <0>         0.0000
     16 H2         -1.6362    3.5968   -0.0993 H         1 <0>         0.0000
     17 H3          1.3574    1.2166   -2.0843 H         1 <0>         0.0000
     18 H4         -2.5078    1.5565    1.0559 H         1 <0>         0.0000
     19 H5         -1.1304   -2.7484    1.3142 H         1 <0>         0.0000
     20 H6          1.2543   -1.4974    4.8474 H         1 <0>         0.0000
     21 H7         -0.0418   -0.5020    5.5208 H         1 <0>         0.0000
     22 H8          1.0864    0.1946    4.3522 H         1 <0>         0.0000
     23 H9          1.0865   -2.2495    2.3581 H         1 <0>         0.0000
     24 H10         0.9526   -0.5605    1.8797 H         1 <0>         0.0000
     25 H11        -1.1359   -0.3429    3.2770 H         1 <0>         0.0000
     26 H12        -0.9785   -2.0213    3.7692 H         1 <0>         0.0000
     27 H13         1.0997   -1.2612   -1.8353 H         1 <0>         0.0000
     28 H14         1.2250   -3.6429   -1.2687 H         1 <0>         0.0000
     29 H15         0.3928   -4.1524    0.1578 H         1 <0>         0.0000
@<TRIPOS>BOND
     1    1    2 ar
     2    1    3 ar
     3    1   15 1
     4    2    4 ar
     5    2   16 1
     6    3    5 ar
     7    3   17 1
     8    4    6 ar
     9    4   18 1
    10    5    6 ar
    11    5   12 1
    12    6   14 1
    13    7    8 1
    14    7   12 2
    15    7   13 1
    16    8   10 1
    17    8   14 1
    18    8   19 1
    19    9   11 1
    20    9   20 1
    21    9   21 1
    22    9   22 1
    23   10   11 1
    24   10   23 1
    25   10   24 1
    26   11   25 1
    27   11   26 1
    28   12   27 1
    29   13   28 1
    30   13   29 1
