@<TRIPOS>MOLECULE
*****
   28    29     0     0     0
SMALL
NO_CHARGES

@<TRIPOS>ATOM
      1 C1          0.4684    2.7739    0.0412 C.ar      1 <0>         0.0000
      2 C2          1.0873    2.2652    1.1897 C.ar      1 <0>         0.0000
      3 C3         -0.3745    1.9586   -0.7195 C.ar      1 <0>         0.0000
      4 C4          0.8780    0.9342    1.5700 C.ar      1 <0>         0.0000
      5 C5         -0.5994    0.6257   -0.3515 C.ar      1 <0>         0.0000
      6 C6          0.0509    0.1262    0.7944 C.ar      1 <0>         0.0000
      7 C7         -1.4653   -1.4371   -0.8393 C.2       1 <0>         0.0000
      8 C8         -0.4441   -2.0697    0.0916 C.3       1 <0>         0.0000
      9 C9          3.1864   -3.4136   -0.5348 C.3       1 <0>         0.0000
     10 C10         0.8403   -2.4354   -0.6674 C.3       1 <0>         0.0000
     11 C11         1.8968   -3.0911    0.2274 C.3       1 <0>         0.0000
     12 N1         -1.5065   -0.1706   -1.0729 N.2       1 <0>         0.0000
     13 N2         -2.2842   -2.3081   -1.5303 N.pl3     1 <0>         0.0000
     14 O1         -0.1820   -1.1766    1.1864 O.3       1 <0>         0.0000
     15 H1          0.6352    3.8057   -0.2559 H         1 <0>         0.0000
     16 H2          1.7360    2.8991    1.7882 H         1 <0>         0.0000
     17 H3         -0.8821    2.3390   -1.6016 H         1 <0>         0.0000
     18 H4          1.3487    0.5146    2.4549 H         1 <0>         0.0000
     19 H5         -0.8593   -2.9655    0.5658 H         1 <0>         0.0000
     20 H6          2.9957   -4.0974   -1.3701 H         1 <0>         0.0000
     21 H7          3.9271   -3.8847    0.1200 H         1 <0>         0.0000
     22 H8          3.6368   -2.5038   -0.9476 H         1 <0>         0.0000
     23 H9          0.5678   -3.1057   -1.4917 H         1 <0>         0.0000
     24 H10         1.2474   -1.5257   -1.1244 H         1 <0>         0.0000
     25 H11         2.1179   -2.4242    1.0671 H         1 <0>         0.0000
     26 H12         1.4844   -4.0112    0.6628 H         1 <0>         0.0000
     27 H13        -3.0363   -1.8526   -2.0378 H         1 <0>         0.0000
     28 H14        -2.5592   -3.1560   -1.0496 H         1 <0>         0.0000
@<TRIPOS>BOND
     1    1    2 ar
     2    1    3 ar
     3    1   15 1
     4    2    4 ar
     5    2   16 1
     6    3    5 ar
     7    3   17 1
     8    4    6 ar
     9    4   18 1
    10    5    6 ar
    11    5   12 1
    12    6   14 1
    13    7    8 1
    14    7   12 2
    15    7   13 1
    16    8   10 1
    17    8   14 1
    18    8   19 1
    19    9   11 1
    20    9   20 1
    21    9   21 1
    22    9   22 1
    23   10   11 1
    24   10   23 1
    25   10   24 1
    26   11   25 1
    27   11   26 1
    28   13   27 1
    29   13   28 1
