@<TRIPOS>MOLECULE
*****
   29    30     0     0     0
SMALL
NO_CHARGES

@<TRIPOS>ATOM
      1 C1          1.4132    5.1616    3.5487 C.ar      1 <0>         0.0000
      2 C2          0.1225    5.6662    3.3753 C.ar      1 <0>         0.0000
      3 C3          1.7959    3.9975    2.8804 C.ar      1 <0>         0.0000
      4 C4         -0.7774    5.0060    2.5350 C.ar      1 <0>         0.0000
      5 C5          0.9174    3.3186    2.0227 C.ar      1 <0>         0.0000
      6 C6         -0.3738    3.8485    1.8697 C.ar      1 <0>         0.0000
      7 C7          0.4932    0.2286    2.6264 C.cat     1 <0>         0.0000
      8 C8         -0.0084   -1.3734    4.2168 C.3       1 <0>         0.0000
      9 C9          1.0648   -0.3971    4.7310 C.3       1 <0>         0.0000
     10 C10         1.6534    2.2939   -0.2081 C.3       1 <0>         0.0000
     11 C11         1.4355    2.0890    1.2938 C.3       1 <0>         0.0000
     12 N1         -0.4243   -0.6774    2.9863 N.pl3     1 <0>         0.0000
     13 N2          0.5459    0.9074    1.4986 N.pl3     1 <0>         0.0000
     14 O1          1.4252    0.4027    3.5468 O.3       1 <0>         0.0000
     15 Cl1        -1.5705    3.0738    0.8187 Cl        1 <0>         0.0000
     16 H1          2.1178    5.6692    4.2003 H         1 <0>         0.0000
     17 H2         -0.1901    6.5706    3.8887 H         1 <0>         0.0000
     18 H3          2.8007    3.6053    3.0190 H         1 <0>         0.0000
     19 H4         -1.7830    5.3874    2.3901 H         1 <0>         0.0000
     20 H5          0.3956   -2.3627    3.9846 H         1 <0>         0.0000
     21 H6         -0.8451   -1.4712    4.9097 H         1 <0>         0.0000
     22 H7          0.6858    0.3022    5.4772 H         1 <0>         0.0000
     23 H8          1.9762   -0.8769    5.0816 H         1 <0>         0.0000
     24 H9          0.7247    2.5461   -0.7246 H         1 <0>         0.0000
     25 H10         2.0838    1.3954   -0.6597 H         1 <0>         0.0000
     26 H11         2.3509    3.1218   -0.3518 H         1 <0>         0.0000
     27 H12         2.3901    1.8155    1.7443 H         1 <0>         0.0000
     28 H13        -1.1438   -1.0218    2.3614 H         1 <0>         0.0000
     29 H14        -0.2367    0.8136    0.8585 H         1 <0>         0.0000
@<TRIPOS>BOND
     1    1    2 ar
     2    1    3 ar
     3    1   16 1
     4    2    4 ar
     5    2   17 1
     6    3    5 ar
     7    3   18 1
     8    4    6 ar
     9    4   19 1
    10    5    6 ar
    11    5   11 1
    12    6   15 1
    13    7   12 1
    14    7   13 2
    15    7   14 1
    16    8    9 1
    17    8   12 1
    18    8   20 1
    19    8   21 1
    20    9   14 1
    21    9   22 1
    22    9   23 1
    23   10   11 1
    24   10   24 1
    25   10   25 1
    26   10   26 1
    27   11   13 1
    28   11   27 1
    29   12   28 1
    30   13   29 1
