@<TRIPOS>MOLECULE
*****
   42    43     0     0     0
SMALL
NO_CHARGES

@<TRIPOS>ATOM
      1 C1          5.5098   -0.1557    5.4014 C.ar      1 <0>         0.0000
      2 C2          5.3132    0.6120    4.2447 C.ar      1 <0>         0.0000
      3 C3          3.1253   -0.3577    5.6691 C.ar      1 <0>         0.0000
      4 C4          4.4218   -0.6507    6.1202 C.ar      1 <0>         0.0000
      5 C5          4.0250    0.8970    3.7915 C.ar      1 <0>         0.0000
      6 C6          2.9132    0.4059    4.5200 C.ar      1 <0>         0.0000
      7 C7         -0.7725    0.1970    2.5453 C.3       1 <0>         0.0000
      8 C8         -0.1752   -1.2291    2.7339 C.3       1 <0>         0.0000
      9 C9         -0.6747    0.8730    3.9307 C.3       1 <0>         0.0000
     10 C10         0.3346   -1.2909    4.1956 C.3       1 <0>         0.0000
     11 C11         0.5046    0.1776    4.6101 C.3       1 <0>         0.0000
     12 C12         5.4078   -2.7681    7.0734 C.3       1 <0>         0.0000
     13 C13         4.8201    2.1492    1.9245 C.3       1 <0>         0.0000
     14 C14         5.3907   -0.6368    8.4554 C.3       1 <0>         0.0000
     15 C15         4.6427   -1.4740    7.3839 C.3       1 <0>         0.0000
     16 N1          4.7359    0.6065    8.8549 N.3       1 <0>         0.0000
     17 O1          3.3375   -1.8076    7.9077 O.3       1 <0>         0.0000
     18 O2          1.6905    0.7516    4.0253 O.3       1 <0>         0.0000
     19 O3          3.7301    1.6307    2.6747 O.3       1 <0>         0.0000
     20 H1          6.5276   -0.3589    5.7230 H         1 <0>         0.0000
     21 H2          6.1778    0.9804    3.7042 H         1 <0>         0.0000
     22 H3          2.2892   -0.7461    6.2324 H         1 <0>         0.0000
     23 H4         -0.1818    0.7593    1.8177 H         1 <0>         0.0000
     24 H5         -1.8029    0.1719    2.1788 H         1 <0>         0.0000
     25 H6         -0.9133   -2.0133    2.5413 H         1 <0>         0.0000
     26 H7          0.6511   -1.3896    2.0365 H         1 <0>         0.0000
     27 H8         -0.5293    1.9551    3.8790 H         1 <0>         0.0000
     28 H9         -1.5757    0.6794    4.5241 H         1 <0>         0.0000
     29 H10        -0.4141   -1.7482    4.8531 H         1 <0>         0.0000
     30 H11         1.2564   -1.8665    4.3040 H         1 <0>         0.0000
     31 H12         0.5184    0.3324    5.6946 H         1 <0>         0.0000
     32 H13         5.5642   -3.3536    7.9891 H         1 <0>         0.0000
     33 H14         6.3906   -2.5584    6.6425 H         1 <0>         0.0000
     34 H15         4.8427   -3.3754    6.3609 H         1 <0>         0.0000
     35 H16         4.3754    2.6960    1.0916 H         1 <0>         0.0000
     36 H17         5.4572    1.3461    1.5318 H         1 <0>         0.0000
     37 H18         5.4309    2.8363    2.5242 H         1 <0>         0.0000
     38 H19         6.3992   -0.4017    8.0997 H         1 <0>         0.0000
     39 H20         5.5155   -1.2653    9.3482 H         1 <0>         0.0000
     40 H21         3.7630    0.3971    9.0789 H         1 <0>         0.0000
     41 H22         4.7036    1.2344    8.0520 H         1 <0>         0.0000
     42 H23         3.4708   -2.4404    8.6314 H         1 <0>         0.0000
@<TRIPOS>BOND
     1    1    2 ar
     2    1    4 ar
     3    1   20 1
     4    2    5 ar
     5    2   21 1
     6    3    4 ar
     7    3    6 ar
     8    3   22 1
     9    4   15 1
    10    5    6 ar
    11    5   19 1
    12    6   18 1
    13    7    8 1
    14    7    9 1
    15    7   23 1
    16    7   24 1
    17    8   10 1
    18    8   25 1
    19    8   26 1
    20    9   11 1
    21    9   27 1
    22    9   28 1
    23   10   11 1
    24   10   29 1
    25   10   30 1
    26   11   18 1
    27   11   31 1
    28   12   15 1
    29   12   32 1
    30   12   33 1
    31   12   34 1
    32   13   19 1
    33   13   35 1
    34   13   36 1
    35   13   37 1
    36   14   15 1
    37   14   16 1
    38   14   38 1
    39   14   39 1
    40   15   17 1
    41   16   40 1
    42   16   41 1
    43   17   42 1
