@<TRIPOS>MOLECULE
*****
   28    29     0     0     0
SMALL
NO_CHARGES

@<TRIPOS>ATOM
      1 C1         -3.2588    3.5584    2.9927 C.ar      1 <0>         0.0000
      2 C2         -4.0903    2.9184    3.9143 C.ar      1 <0>         0.0000
      3 C3         -1.9738    3.0649    2.7543 C.ar      1 <0>         0.0000
      4 C4         -3.6316    1.7867    4.5925 C.ar      1 <0>         0.0000
      5 C5         -1.4822    1.9320    3.4189 C.ar      1 <0>         0.0000
      6 C6         -2.3451    1.3082    4.3384 C.ar      1 <0>         0.0000
      7 C7          0.6720   -0.8523    2.4800 C.2       1 <0>         0.0000
      8 C8          2.4249   -2.1154    2.9083 C.3       1 <0>         0.0000
      9 C9          1.3396   -2.9806    2.2136 C.3       1 <0>         0.0000
     10 C10         0.8815    2.3581    2.4923 C.3       1 <0>         0.0000
     11 C11        -0.0925    1.3773    3.1489 C.3       1 <0>         0.0000
     12 N1          1.7965   -0.8009    3.0952 N.2       1 <0>         0.0000
     13 N2         -0.2283    0.1627    2.3209 N.pl3     1 <0>         0.0000
     14 O1          0.3013   -2.0247    1.8664 O.3       1 <0>         0.0000
     15 Cl1        -1.8197   -0.1258    5.2176 Cl        1 <0>         0.0000
     16 H1         -3.6071    4.4394    2.4608 H         1 <0>         0.0000
     17 H2         -5.0911    3.2935    4.1104 H         1 <0>         0.0000
     18 H3         -1.3364    3.5728    2.0386 H         1 <0>         0.0000
     19 H4         -4.2616    1.2768    5.3144 H         1 <0>         0.0000
     20 H5          2.7292   -2.5379    3.8716 H         1 <0>         0.0000
     21 H6          3.3272   -2.0183    2.2914 H         1 <0>         0.0000
     22 H7          1.6724   -3.4639    1.2924 H         1 <0>         0.0000
     23 H8          0.8966   -3.7290    2.8778 H         1 <0>         0.0000
     24 H9          0.5577    2.6353    1.4849 H         1 <0>         0.0000
     25 H10         0.9903    3.2641    3.0974 H         1 <0>         0.0000
     26 H11         1.8573    1.8741    2.4140 H         1 <0>         0.0000
     27 H12         0.3435    1.0733    4.1066 H         1 <0>         0.0000
     28 H13        -1.1680   -0.1454    2.1053 H         1 <0>         0.0000
@<TRIPOS>BOND
     1    1    2 ar
     2    1    3 ar
     3    1   16 1
     4    2    4 ar
     5    2   17 1
     6    3    5 ar
     7    3   18 1
     8    4    6 ar
     9    4   19 1
    10    5    6 ar
    11    5   11 1
    12    6   15 1
    13    7   12 2
    14    7   13 1
    15    7   14 1
    16    8    9 1
    17    8   12 1
    18    8   20 1
    19    8   21 1
    20    9   14 1
    21    9   22 1
    22    9   23 1
    23   10   11 1
    24   10   24 1
    25   10   25 1
    26   10   26 1
    27   11   13 1
    28   11   27 1
    29   13   28 1
