@<TRIPOS>MOLECULE
*****
   13    12     0     0     0
SMALL
NO_CHARGES

@<TRIPOS>ATOM
      1 C1         -0.4238    0.8108    0.6004 C.3       1 <0>         0.0000
      2 C2         -0.8331   -0.7088    2.5635 C.3       1 <0>         0.0000
      3 C3         -0.1831    0.5832    2.0850 C.3       1 <0>         0.0000
      4 O1         -0.5999   -0.8539    3.9604 O.3       1 <0>         0.0000
      5 O2         -0.7516    1.6685    2.8163 O.3       1 <0>         0.0000
      6 H1         -1.4974    0.8254    0.3837 H         1 <0>         0.0000
      7 H2          0.0100    1.7589    0.2680 H         1 <0>         0.0000
      8 H3          0.0060   -0.0016    0.0041 H         1 <0>         0.0000
      9 H4         -1.9163   -0.6903    2.4039 H         1 <0>         0.0000
     10 H5         -0.4036   -1.5777    2.0553 H         1 <0>         0.0000
     11 H6          0.8907    0.5686    2.3018 H         1 <0>         0.0000
     12 H7         -1.0260   -1.6832    4.2284 H         1 <0>         0.0000
     13 H8         -0.5790    1.4888    3.7530 H         1 <0>         0.0000
@<TRIPOS>BOND
     1    1    3 1
     2    1    6 1
     3    1    7 1
     4    1    8 1
     5    2    3 1
     6    2    4 1
     7    2    9 1
     8    2   10 1
     9    3    5 1
    10    3   11 1
    11    4   12 1
    12    5   13 1
