@<TRIPOS>MOLECULE
*****
   47    48     0     0     0
SMALL
NO_CHARGES

@<TRIPOS>ATOM
      1 C1          2.2659    0.2551   -1.0550 C.2       1 <0>         0.0000
      2 C2          0.2232    0.9855    1.0933 C.2       1 <0>         0.0000
      3 C3         -0.1805   -1.2731   -2.9781 C.3       1 <0>         0.0000
      4 C4         -0.0256    0.8129   -2.0962 C.3       1 <0>         0.0000
      5 C5          0.5748   -1.5140   -1.6714 C.3       1 <0>         0.0000
      6 C6          0.7620   -0.0643   -1.0891 C.3       1 <0>         0.0000
      7 C7          4.6380    1.7253    0.1048 C.3       1 <0>         0.0000
      8 C8          4.2348    0.0897    1.9866 C.3       1 <0>         0.0000
      9 C9          4.9901   -0.7741   -0.2587 C.3       1 <0>         0.0000
     10 C10        -1.3725    2.5340    3.0804 C.3       1 <0>         0.0000
     11 C11        -0.6231    0.6692    4.6061 C.3       1 <0>         0.0000
     12 C12         1.0844    2.2952    3.7044 C.3       1 <0>         0.0000
     13 C13         4.1982    0.3088    0.4750 C.3       1 <0>         0.0000
     14 C14        -0.2370    1.5744    3.4375 C.3       1 <0>         0.0000
     15 N1          0.1360   -0.1090    0.2247 N.am      1 <0>         0.0000
     16 O1          2.8805    0.4903   -2.0799 O.2       1 <0>         0.0000
     17 O2          0.4986    2.1002    0.6879 O.2       1 <0>         0.0000
     18 O3         -1.3792   -1.8795    1.4356 O.2       1 <0>         0.0000
     19 O4          1.1169   -2.2603    1.3496 O.2       1 <0>         0.0000
     20 O5         -0.9146   -0.0756   -2.7709 O.3       1 <0>         0.0000
     21 O6         -0.2714   -2.2537   -0.7653 O.3       1 <0>         0.0000
     22 O7          2.7529    0.1476    0.1738 O.3       1 <0>         0.0000
     23 O8         -0.0519    0.5957    2.3352 O.3       1 <0>         0.0000
     24 S1         -0.1045   -1.7215    0.7746 S.o2      1 <0>         0.0000
     25 H1          0.5471   -1.1587   -3.7946 H         1 <0>         0.0000
     26 H2         -0.8762   -2.0814   -3.2082 H         1 <0>         0.0000
     27 H3         -0.6106    1.5807   -1.5947 H         1 <0>         0.0000
     28 H4          0.6798    1.2693   -2.7991 H         1 <0>         0.0000
     29 H5          1.5174   -2.0508   -1.7914 H         1 <0>         0.0000
     30 H6          4.6330    1.8774   -0.9753 H         1 <0>         0.0000
     31 H7          3.9748    2.4608    0.5698 H         1 <0>         0.0000
     32 H8          5.6534    1.8938    0.4774 H         1 <0>         0.0000
     33 H9          3.8116   -0.8857    2.2410 H         1 <0>         0.0000
     34 H10         3.6551    0.8629    2.4978 H         1 <0>         0.0000
     35 H11         5.2675    0.1348    2.3446 H         1 <0>         0.0000
     36 H12         4.5931   -1.7643   -0.0148 H         1 <0>         0.0000
     37 H13         4.9596   -0.6298   -1.3395 H         1 <0>         0.0000
     38 H14         6.0344   -0.7369    0.0668 H         1 <0>         0.0000
     39 H15        -1.1006    3.1871    2.2499 H         1 <0>         0.0000
     40 H16        -2.2741    1.9737    2.8156 H         1 <0>         0.0000
     41 H17        -1.6015    3.1565    3.9510 H         1 <0>         0.0000
     42 H18         0.1726   -0.0520    4.8122 H         1 <0>         0.0000
     43 H19        -1.5375    0.1160    4.3768 H         1 <0>         0.0000
     44 H20        -0.7901    1.2732    5.5026 H         1 <0>         0.0000
     45 H21         1.8760    1.5697    3.9130 H         1 <0>         0.0000
     46 H22         1.3791    2.9134    2.8553 H         1 <0>         0.0000
     47 H23         0.9716    2.9379    4.5834 H         1 <0>         0.0000
@<TRIPOS>BOND
     1    1    6 1
     2    1   16 2
     3    1   22 1
     4    2   15 am
     5    2   17 2
     6    2   23 1
     7    3    5 1
     8    3   20 1
     9    3   25 1
    10    3   26 1
    11    4    6 1
    12    4   20 1
    13    4   27 1
    14    4   28 1
    15    5    6 1
    16    5   21 1
    17    5   29 1
    18    6   15 1
    19    7   13 1
    20    7   30 1
    21    7   31 1
    22    7   32 1
    23    8   13 1
    24    8   33 1
    25    8   34 1
    26    8   35 1
    27    9   13 1
    28    9   36 1
    29    9   37 1
    30    9   38 1
    31   10   14 1
    32   10   39 1
    33   10   40 1
    34   10   41 1
    35   11   14 1
    36   11   42 1
    37   11   43 1
    38   11   44 1
    39   12   14 1
    40   12   45 1
    41   12   46 1
    42   12   47 1
    43   13   22 1
    44   14   23 1
    45   15   24 1
    46   18   24 2
    47   19   24 2
    48   21   24 1
