@<TRIPOS>MOLECULE
*****
   42    45     0     0     0
SMALL
NO_CHARGES

@<TRIPOS>ATOM
      1 C1          5.4804    2.3674   -2.2316 C.ar      1 <0>         0.0000
      2 C2          4.2310    2.5300   -2.8282 C.ar      1 <0>         0.0000
      3 C3          5.6016    1.8130   -0.9553 C.ar      1 <0>         0.0000
      4 C4          0.9975    0.3648   -0.5201 C.ar      1 <0>         0.0000
      5 C5          3.1633    1.6113   -0.8321 C.ar      1 <0>         0.0000
      6 C6         -0.2153    0.6241    1.5227 C.ar      1 <0>         0.0000
      7 C7         -0.1154    0.0263    0.2635 C.ar      1 <0>         0.0000
      8 C8          3.0801    2.1482   -2.1246 C.ar      1 <0>         0.0000
      9 C9          4.4443    1.4266   -0.2651 C.ar      1 <0>         0.0000
     10 C10         1.9504    1.2702   -0.0406 C.ar      1 <0>         0.0000
     11 C11         0.7971    1.5095    1.9083 C.ar      1 <0>         0.0000
     12 C12         0.0737    1.4078    4.2413 C.2       1 <0>         0.0000
     13 C13        -1.3251    0.4477    2.5164 C.3       1 <0>         0.0000
     14 C14         4.3213    1.6255    4.0076 C.3       1 <0>         0.0000
     15 C15         5.7686    1.4005    4.3902 C.3       1 <0>         0.0000
     16 C16         5.1671    0.6591    3.2135 C.3       1 <0>         0.0000
     17 C17        -1.1603   -0.9394   -0.2394 C.3       1 <0>         0.0000
     18 C18         5.5874    1.0394    1.8205 C.3       1 <0>         0.0000
     19 N1          1.8444    1.8523    1.1705 N.ar      1 <0>         0.0000
     20 N2          0.6961    2.0728    3.1917 N.am      1 <0>         0.0000
     21 O1          0.3172    1.6341    5.4087 O.2       1 <0>         0.0000
     22 O2         -0.8281    0.4567    3.8793 O.3       1 <0>         0.0000
     23 O3          1.8253    2.3102   -2.6658 O.3       1 <0>         0.0000
     24 O4          4.4662    0.8193    0.9515 O.3       1 <0>         0.0000
     25 H1          6.3744    2.6644   -2.7734 H         1 <0>         0.0000
     26 H2          4.1459    2.9560   -3.8260 H         1 <0>         0.0000
     27 H3          6.5820    1.6636   -0.5178 H         1 <0>         0.0000
     28 H4          1.1274   -0.0718   -1.5046 H         1 <0>         0.0000
     29 H5         -2.0701    1.2501    2.4251 H         1 <0>         0.0000
     30 H6         -1.8362   -0.5097    2.4127 H         1 <0>         0.0000
     31 H7          3.5477    1.2220    4.6542 H         1 <0>         0.0000
     32 H8          4.0652    2.5627    3.5213 H         1 <0>         0.0000
     33 H9          6.4804    2.1952    4.1826 H         1 <0>         0.0000
     34 H10         5.9814    0.8346    5.2920 H         1 <0>         0.0000
     35 H11         4.9615   -0.3991    3.3533 H         1 <0>         0.0000
     36 H12        -1.2504   -1.8075    0.4234 H         1 <0>         0.0000
     37 H13        -2.1473   -0.4670   -0.2933 H         1 <0>         0.0000
     38 H14        -0.9084   -1.3041   -1.2378 H         1 <0>         0.0000
     39 H15         6.4416    0.4348    1.4869 H         1 <0>         0.0000
     40 H16         5.8763    2.0973    1.7816 H         1 <0>         0.0000
     41 H17         1.4743    2.6581    3.4768 H         1 <0>         0.0000
     42 H18         1.9150    2.7571   -3.5222 H         1 <0>         0.0000
@<TRIPOS>BOND
     1    1    2 ar
     2    1    3 ar
     3    1   25 1
     4    2    8 ar
     5    2   26 1
     6    3    9 ar
     7    3   27 1
     8    4    7 ar
     9    4   10 ar
    10    4   28 1
    11    5    8 ar
    12    5    9 ar
    13    5   10 1
    14    6    7 ar
    15    6   11 ar
    16    6   13 1
    17    7   17 1
    18    8   23 1
    19    9   24 1
    20   10   19 ar
    21   11   19 ar
    22   11   20 1
    23   12   20 am
    24   12   21 2
    25   12   22 1
    26   13   22 1
    27   13   29 1
    28   13   30 1
    29   14   15 1
    30   14   16 1
    31   14   31 1
    32   14   32 1
    33   15   16 1
    34   15   33 1
    35   15   34 1
    36   16   18 1
    37   16   35 1
    38   17   36 1
    39   17   37 1
    40   17   38 1
    41   18   24 1
    42   18   39 1
    43   18   40 1
    44   20   41 1
    45   23   42 1
