@<TRIPOS>MOLECULE
*****
   38    38     0     0     0
SMALL
NO_CHARGES

@<TRIPOS>ATOM
      1 C1         -0.9408   -1.0178   -0.2539 C.3       1 <0>         0.0000
      2 C2         -0.6459   -2.4314   -0.8241 C.3       1 <0>         0.0000
      3 C3          0.4524   -0.4069   -0.0248 C.3       1 <0>         0.0000
      4 C4          0.8922   -2.5875   -0.7538 C.3       1 <0>         0.0000
      5 C5          1.3479   -3.9962   -0.3742 C.3       1 <0>         0.0000
      6 C6          2.8739   -4.1381   -0.3133 C.3       1 <0>         0.0000
      7 C7          4.9839   -8.4684   -0.3821 C.3       1 <0>         0.0000
      8 C8          5.4325   -9.8631    0.0732 C.3       1 <0>         0.0000
      9 C9          3.2841   -5.5687    0.0383 C.3       1 <0>         0.0000
     10 C10         5.4185   -7.4095    0.6286 C.3       1 <0>         0.0000
     11 C11         4.9852  -10.9574   -0.8724 C.3       1 <0>         0.0000
     12 N1          1.2824   -1.5872    0.2546 N.3       1 <0>         0.0000
     13 O1          5.6032   -4.8061    1.1277 O.2       1 <0>         0.0000
     14 O2          5.5939   -5.5785   -1.3107 O.2       1 <0>         0.0000
     15 F1          5.3937  -12.1765   -0.4419 F         1 <0>         0.0000
     16 F2          3.6313  -11.0072   -0.9849 F         1 <0>         0.0000
     17 F3          5.4810  -10.7860   -2.1228 F         1 <0>         0.0000
     18 S1          5.0988   -5.7036    0.0732 S.o2      1 <0>         0.0000
     19 H1         -1.5477   -0.4068   -0.9276 H         1 <0>         0.0000
     20 H2         -1.4760   -1.0951    0.6962 H         1 <0>         0.0000
     21 H3         -1.1331   -3.2024   -0.2193 H         1 <0>         0.0000
     22 H4         -1.0015   -2.5512   -1.8512 H         1 <0>         0.0000
     23 H5          0.7791    0.1339   -0.9307 H         1 <0>         0.0000
     24 H6          0.4803    0.2939    0.8155 H         1 <0>         0.0000
     25 H7          1.3159   -2.3387   -1.7451 H         1 <0>         0.0000
     26 H8          0.9121   -4.2459    0.6010 H         1 <0>         0.0000
     27 H9          0.9413   -4.7061   -1.1068 H         1 <0>         0.0000
     28 H10         3.2829   -3.4605    0.4414 H         1 <0>         0.0000
     29 H11         3.3133   -3.8660   -1.2793 H         1 <0>         0.0000
     30 H12         5.4175   -8.2339   -1.3575 H         1 <0>         0.0000
     31 H13         3.8958   -8.4602   -0.4955 H         1 <0>         0.0000
     32 H14         6.5230   -9.9206    0.1390 H         1 <0>         0.0000
     33 H15         5.0271  -10.1085    1.0594 H         1 <0>         0.0000
     34 H16         2.9259   -5.8581    1.0310 H         1 <0>         0.0000
     35 H17         2.9262   -6.2842   -0.7071 H         1 <0>         0.0000
     36 H18         4.9318   -7.5170    1.6025 H         1 <0>         0.0000
     37 H19         6.5020   -7.4152    0.7870 H         1 <0>         0.0000
     38 H20         2.2728   -1.3619    0.1938 H         1 <0>         0.0000
@<TRIPOS>BOND
     1    1    2 1
     2    1    3 1
     3    1   19 1
     4    1   20 1
     5    2    4 1
     6    2   21 1
     7    2   22 1
     8    3   12 1
     9    3   23 1
    10    3   24 1
    11    4    5 1
    12    4   12 1
    13    4   25 1
    14    5    6 1
    15    5   26 1
    16    5   27 1
    17    6    9 1
    18    6   28 1
    19    6   29 1
    20    7    8 1
    21    7   10 1
    22    7   30 1
    23    7   31 1
    24    8   11 1
    25    8   32 1
    26    8   33 1
    27    9   18 1
    28    9   34 1
    29    9   35 1
    30   10   18 1
    31   10   36 1
    32   10   37 1
    33   11   15 1
    34   11   16 1
    35   11   17 1
    36   12   38 1
    37   13   18 2
    38   14   18 2
