@<TRIPOS>MOLECULE
*****
   41    42     0     0     0
SMALL
NO_CHARGES

@<TRIPOS>ATOM
      1 C1         -7.5111    0.1000   -3.8541 C.ar      1 <0>         0.0000
      2 C2         -3.2356    0.5589   -3.3133 C.ar      1 <0>         0.0000
      3 C3         -7.8575   -0.6464   -2.7220 C.ar      1 <0>         0.0000
      4 C4         -6.9251    1.3599   -3.6943 C.ar      1 <0>         0.0000
      5 C5         -2.0231    1.1709   -2.9734 C.ar      1 <0>         0.0000
      6 C6         -3.7564   -0.4415   -2.4890 C.ar      1 <0>         0.0000
      7 C7         -7.6136   -0.1357   -1.4437 C.ar      1 <0>         0.0000
      8 C8         -6.6815    1.8631   -2.4131 C.ar      1 <0>         0.0000
      9 C9         -1.3479    0.7941   -1.8085 C.ar      1 <0>         0.0000
     10 C10        -3.0724   -0.8168   -1.3279 C.ar      1 <0>         0.0000
     11 C11        -7.0205    1.1240   -1.2710 C.ar      1 <0>         0.0000
     12 C12        -1.8681   -0.1997   -0.9625 C.ar      1 <0>         0.0000
     13 C13        -3.3935    0.8593    2.1333 C.2       1 <0>         0.0000
     14 C14        -6.6451    1.6165    0.1092 C.3       1 <0>         0.0000
     15 C15        -1.1896   -0.5470    0.3460 C.3       1 <0>         0.0000
     16 C16        -4.7292    1.5398    1.8559 C.3       1 <0>         0.0000
     17 C17        -5.2629    1.0648    0.4939 C.3       1 <0>         0.0000
     18 C18        -1.0747    0.6601    1.3045 C.3       1 <0>         0.0000
     19 N1         -2.3242    1.3994    1.4618 N.am      1 <0>         0.0000
     20 O1         -3.2858   -0.1250    2.8646 O.2       1 <0>         0.0000
     21 H1         -7.7001   -0.2947   -4.8491 H         1 <0>         0.0000
     22 H2         -3.7743    0.8620   -4.2068 H         1 <0>         0.0000
     23 H3         -8.3181   -1.6246   -2.8354 H         1 <0>         0.0000
     24 H4         -6.6562    1.9495   -4.5674 H         1 <0>         0.0000
     25 H5         -1.6051    1.9438   -3.6140 H         1 <0>         0.0000
     26 H6         -4.7079   -0.9055   -2.7345 H         1 <0>         0.0000
     27 H7         -7.8805   -0.7244   -0.5681 H         1 <0>         0.0000
     28 H8         -6.2104    2.8373   -2.2981 H         1 <0>         0.0000
     29 H9         -0.4078    1.2808   -1.5542 H         1 <0>         0.0000
     30 H10        -3.4944   -1.5805   -0.6788 H         1 <0>         0.0000
     31 H11        -7.3899    1.2967    0.8473 H         1 <0>         0.0000
     32 H12        -6.6243    2.7127    0.1273 H         1 <0>         0.0000
     33 H13        -0.1781   -0.9339    0.1679 H         1 <0>         0.0000
     34 H14        -1.7519   -1.3360    0.8514 H         1 <0>         0.0000
     35 H15        -4.6204    2.6314    1.8600 H         1 <0>         0.0000
     36 H16        -5.4147    1.2611    2.6597 H         1 <0>         0.0000
     37 H17        -5.3078   -0.0292    0.4936 H         1 <0>         0.0000
     38 H18        -4.5553    1.3322   -0.2967 H         1 <0>         0.0000
     39 H19        -0.7593    0.3113    2.2901 H         1 <0>         0.0000
     40 H20        -0.3222    1.3677    0.9447 H         1 <0>         0.0000
     41 H21        -2.5442    2.0582    0.7253 H         1 <0>         0.0000
@<TRIPOS>BOND
     1    1    4 ar
     2    1    3 ar
     3    1   21 1
     4    2    6 ar
     5    2    5 ar
     6    2   22 1
     7    3    7 ar
     8    3   23 1
     9    4    8 ar
    10    4   24 1
    11    5    9 ar
    12    5   25 1
    13    6   10 ar
    14    6   26 1
    15    7   11 ar
    16    7   27 1
    17    8   11 ar
    18    8   28 1
    19    9   12 ar
    20    9   29 1
    21   10   12 ar
    22   10   30 1
    23   11   14 1
    24   12   15 1
    25   13   16 1
    26   13   19 am
    27   13   20 2
    28   14   17 1
    29   14   31 1
    30   14   32 1
    31   15   18 1
    32   15   33 1
    33   15   34 1
    34   16   17 1
    35   16   35 1
    36   16   36 1
    37   17   37 1
    38   17   38 1
    39   18   19 1
    40   18   39 1
    41   18   40 1
    42   19   41 1
