@<TRIPOS>MOLECULE
*****
   57    60     0     0     0
SMALL
NO_CHARGES

@<TRIPOS>ATOM
      1 C1          4.6608   -2.6581    5.7338 C.ar      1 <0>         0.0000
      2 C2         -2.5929   -7.8155    3.3248 C.ar      1 <0>         0.0000
      3 C3          4.8507   -3.0735    4.4111 C.ar      1 <0>         0.0000
      4 C4          3.5932   -3.1785    6.4720 C.ar      1 <0>         0.0000
      5 C5         -2.4544   -6.7599    2.4157 C.ar      1 <0>         0.0000
      6 C6         -1.4588   -8.5148    3.7481 C.ar      1 <0>         0.0000
      7 C7          0.0842   -2.1064    2.3478 C.ar      1 <0>         0.0000
      8 C8          0.8213   -2.7293    0.1571 C.ar      1 <0>         0.0000
      9 C9          3.9831   -4.0030    3.8320 C.ar      1 <0>         0.0000
     10 C10         2.7229   -4.1034    5.8868 C.ar      1 <0>         0.0000
     11 C11        -1.1918   -6.4064    1.9343 C.ar      1 <0>         0.0000
     12 C12        -0.1955   -8.1552    3.2661 C.ar      1 <0>         0.0000
     13 C13         0.6009   -3.2970    2.8683 C.ar      1 <0>         0.0000
     14 C14         1.3533   -3.9097    0.6663 C.ar      1 <0>         0.0000
     15 C15         0.1759   -1.7981    0.9879 C.ar      1 <0>         0.0000
     16 C16         2.9100   -4.5261    4.5648 C.ar      1 <0>         0.0000
     17 C17        -0.0458   -7.1008    2.3557 C.ar      1 <0>         0.0000
     18 C18         1.2458   -4.2237    2.0355 C.ar      1 <0>         0.0000
     19 C19        -2.1739    0.4580   -0.2696 C.3       1 <0>         0.0000
     20 C20        -1.5458    0.1894    1.1242 C.3       1 <0>         0.0000
     21 C21        -1.1887   -0.5748   -0.8791 C.3       1 <0>         0.0000
     22 C22        -0.3225   -0.4880    0.4217 C.3       1 <0>         0.0000
     23 C23         1.9767   -5.5607    3.9647 C.3       1 <0>         0.0000
     24 C24         1.3324   -6.6719    1.8826 C.3       1 <0>         0.0000
     25 C25         0.8498    0.4968    0.2227 C.3       1 <0>         0.0000
     26 C26         1.6526    0.7908    1.4904 C.3       1 <0>         0.0000
     27 N1          1.8169   -5.4307    2.5186 N.pl3     1 <0>         0.0000
     28 O1          2.6936    1.7503    1.2648 O.3       1 <0>         0.0000
     29 H1          5.3332   -1.9308    6.1816 H         1 <0>         0.0000
     30 H2         -3.5763   -8.0917    3.6969 H         1 <0>         0.0000
     31 H3          5.6726   -2.6663    3.8273 H         1 <0>         0.0000
     32 H4          3.4325   -2.8582    7.4985 H         1 <0>         0.0000
     33 H5         -3.3324   -6.2136    2.0798 H         1 <0>         0.0000
     34 H6         -1.5567   -9.3382    4.4512 H         1 <0>         0.0000
     35 H7         -0.3969   -1.4070    3.0272 H         1 <0>         0.0000
     36 H8          0.9257   -2.5186   -0.9053 H         1 <0>         0.0000
     37 H9          4.1196   -4.3151    2.8010 H         1 <0>         0.0000
     38 H10         1.8851   -4.4943    6.4618 H         1 <0>         0.0000
     39 H11        -1.0929   -5.5832    1.2321 H         1 <0>         0.0000
     40 H12         0.6841   -8.7019    3.6012 H         1 <0>         0.0000
     41 H13         0.4980   -3.4896    3.9292 H         1 <0>         0.0000
     42 H14         1.8756   -4.5908    0.0000 H         1 <0>         0.0000
     43 H15        -1.9876    1.4751   -0.6256 H         1 <0>         0.0000
     44 H16        -3.2407    0.2453   -0.3776 H         1 <0>         0.0000
     45 H17        -1.3403    1.0569    1.7592 H         1 <0>         0.0000
     46 H18        -2.1335   -0.5317    1.6988 H         1 <0>         0.0000
     47 H19        -1.6452   -1.5625   -0.9908 H         1 <0>         0.0000
     48 H20        -0.6923   -0.3062   -1.8174 H         1 <0>         0.0000
     49 H21         2.4019   -6.5560    4.1405 H         1 <0>         0.0000
     50 H22         1.0154   -5.5494    4.5022 H         1 <0>         0.0000
     51 H23         2.0612   -7.4612    2.0949 H         1 <0>         0.0000
     52 H24         1.3282   -6.5248    0.8017 H         1 <0>         0.0000
     53 H25         0.4545    1.4422   -0.1776 H         1 <0>         0.0000
     54 H26         1.5336    0.0963   -0.5352 H         1 <0>         0.0000
     55 H27         0.9878    1.1272    2.2999 H         1 <0>         0.0000
     56 H28         2.1602   -0.1100    1.8394 H         1 <0>         0.0000
     57 H29         2.2798    2.5743    0.9639 H         1 <0>         0.0000
@<TRIPOS>BOND
     1    1    4 ar
     2    1    3 ar
     3    1   29 1
     4    2    6 ar
     5    2    5 ar
     6    2   30 1
     7    3    9 ar
     8    3   31 1
     9    4   10 ar
    10    4   32 1
    11    5   11 ar
    12    5   33 1
    13    6   12 ar
    14    6   34 1
    15    7   13 ar
    16    7   15 ar
    17    7   35 1
    18    8   14 ar
    19    8   15 ar
    20    8   36 1
    21    9   16 ar
    22    9   37 1
    23   10   16 ar
    24   10   38 1
    25   11   17 ar
    26   11   39 1
    27   12   17 ar
    28   12   40 1
    29   13   18 ar
    30   13   41 1
    31   14   18 ar
    32   14   42 1
    33   15   22 1
    34   16   23 1
    35   17   24 1
    36   18   27 1
    37   19   21 1
    38   19   20 1
    39   19   43 1
    40   19   44 1
    41   20   22 1
    42   20   45 1
    43   20   46 1
    44   21   22 1
    45   21   47 1
    46   21   48 1
    47   22   25 1
    48   23   27 1
    49   23   49 1
    50   23   50 1
    51   24   27 1
    52   24   51 1
    53   24   52 1
    54   25   26 1
    55   25   53 1
    56   25   54 1
    57   26   28 1
    58   26   55 1
    59   26   56 1
    60   28   57 1
