@<TRIPOS>MOLECULE
*****
   36    38     0     0     0
SMALL
NO_CHARGES

@<TRIPOS>ATOM
      1 C1          0.3069   -3.1368   -0.9457 C.ar      1 <0>         0.0000
      2 C2          0.4310   -3.8806   -2.1186 C.ar      1 <0>         0.0000
      3 C3          2.4239   -2.6091   -2.6652 C.ar      1 <0>         0.0000
      4 C4          2.4890   -4.7810    2.4939 C.2       1 <0>         0.0000
      5 C5          0.4110   -4.6275    2.2177 C.2       1 <0>         0.0000
      6 C6          1.2135   -2.1293   -0.5771 C.ar      1 <0>         0.0000
      7 C7          1.5007   -3.6026   -2.9600 C.ar      1 <0>         0.0000
      8 C8          2.2565   -1.8892   -1.4842 C.ar      1 <0>         0.0000
      9 C9          1.0028    1.1508   -0.1532 C.3       1 <0>         0.0000
     10 C10         0.4975    1.2117    1.2652 C.3       1 <0>         0.0000
     11 C11         0.2332   -0.0229    0.4232 C.3       1 <0>         0.0000
     12 C12        -2.4858   -0.0919    1.2655 C.3       1 <0>         0.0000
     13 C13         0.3046   -2.1198    1.8146 C.3       1 <0>         0.0000
     14 C14         1.0376   -1.3141    0.7134 C.3       1 <0>         0.0000
     15 N1          1.3520   -5.5305    2.4663 N.2       1 <0>         0.0000
     16 N2          2.3015   -3.4813    2.2855 N.2       1 <0>         0.0000
     17 N3          0.9516   -3.3937    2.1089 N.pl3     1 <0>         0.0000
     18 O1          2.2904   -0.8990    1.2450 O.3       1 <0>         0.0000
     19 F1          1.6495   -4.3117   -4.1047 F         1 <0>         0.0000
     20 F2          3.1696   -0.9161   -1.2611 F         1 <0>         0.0000
     21 S1         -1.4414   -0.2573   -0.2273 S.3       1 <0>         0.0000
     22 H1         -0.5439   -3.3456   -0.3102 H         1 <0>         0.0000
     23 H2         -0.2821   -4.6557   -2.3789 H         1 <0>         0.0000
     24 H3          3.2512   -2.3875   -3.3305 H         1 <0>         0.0000
     25 H4          3.4745   -5.1921    2.6697 H         1 <0>         0.0000
     26 H5         -0.6495   -4.8182    2.1131 H         1 <0>         0.0000
     27 H6          0.4951    1.7445   -0.9055 H         1 <0>         0.0000
     28 H7          2.0670    1.0093   -0.2953 H         1 <0>         0.0000
     29 H8          1.2326    1.1085    2.0556 H         1 <0>         0.0000
     30 H9         -0.3426    1.8622    1.4854 H         1 <0>         0.0000
     31 H10        -3.5203   -0.1390    0.9152 H         1 <0>         0.0000
     32 H11        -2.3268    0.8710    1.7557 H         1 <0>         0.0000
     33 H12        -2.3248   -0.8955    1.9882 H         1 <0>         0.0000
     34 H13         0.2982   -1.4993    2.7142 H         1 <0>         0.0000
     35 H14        -0.7242   -2.3444    1.5378 H         1 <0>         0.0000
     36 H15         2.7420   -1.7019    1.5801 H         1 <0>         0.0000
@<TRIPOS>BOND
     1    1    2 ar
     2    1    6 ar
     3    1   22 1
     4    2    7 ar
     5    2   23 1
     6    3    7 ar
     7    3    8 ar
     8    3   24 1
     9    4   15 1
    10    4   16 2
    11    4   25 1
    12    5   15 2
    13    5   17 1
    14    5   26 1
    15    6    8 ar
    16    6   14 1
    17    7   19 1
    18    8   20 1
    19    9   10 1
    20    9   11 1
    21    9   27 1
    22    9   28 1
    23   10   11 1
    24   10   29 1
    25   10   30 1
    26   11   14 1
    27   11   21 1
    28   12   21 1
    29   12   31 1
    30   12   32 1
    31   12   33 1
    32   13   14 1
    33   13   17 1
    34   13   34 1
    35   13   35 1
    36   14   18 1
    37   16   17 1
    38   18   36 1
