@<TRIPOS>MOLECULE
*****
   39    40     0     0     0
SMALL
NO_CHARGES

@<TRIPOS>ATOM
      1 C1         -1.6261    1.7542    3.2265 C.ar      1 <0>         0.0000
      2 C2         -2.4544    2.4501    4.1054 C.ar      1 <0>         0.0000
      3 C3         -1.3208    1.4541    5.9700 C.ar      1 <0>         0.0000
      4 C4         -0.6028    0.9160    3.6889 C.ar      1 <0>         0.0000
      5 C5         -2.3209    2.3168    5.4949 C.ar      1 <0>         0.0000
      6 C6         -0.4801    0.7819    5.0861 C.ar      1 <0>         0.0000
      7 C7          0.2001    0.2245    2.6045 C.2       1 <0>         0.0000
      8 C8         -3.6865    2.4568    7.7281 C.3       1 <0>         0.0000
      9 C9         -2.7183    3.6063    7.7397 C.3       1 <0>         0.0000
     10 C10        -3.2232    3.0621    6.4097 C.3       1 <0>         0.0000
     11 C11         0.5655   -4.0351    4.5047 C.3       1 <0>         0.0000
     12 C12         2.6030   -2.6018    4.2145 C.3       1 <0>         0.0000
     13 C13         1.8122   -3.2165    6.5404 C.3       1 <0>         0.0000
     14 C14         1.3836   -2.8807    5.1033 C.3       1 <0>         0.0000
     15 N1          0.4356   -1.7062    5.0528 N.pl3     1 <0>         0.0000
     16 O1         -0.3565   -0.1930    1.6087 O.2       1 <0>         0.0000
     17 O2          2.1016    0.1841    5.3947 O.2       1 <0>         0.0000
     18 O3          0.5117   -0.3153    7.2927 O.2       1 <0>         0.0000
     19 O4          1.5392    0.1742    2.7096 O.3       1 <0>         0.0000
     20 S1          0.7686   -0.2651    5.8499 S.o2      1 <0>         0.0000
     21 H1         -1.7647    1.8451    2.1541 H         1 <0>         0.0000
     22 H2         -3.2270    3.1005    3.7027 H         1 <0>         0.0000
     23 H3         -1.1829    1.2858    7.0332 H         1 <0>         0.0000
     24 H4         -3.3147    1.4679    7.9793 H         1 <0>         0.0000
     25 H5         -4.7148    2.6403    8.0245 H         1 <0>         0.0000
     26 H6         -3.0767    4.5847    8.0448 H         1 <0>         0.0000
     27 H7         -1.6825    3.4046    7.9960 H         1 <0>         0.0000
     28 H8         -3.9535    3.6819    5.8974 H         1 <0>         0.0000
     29 H9         -0.3112   -4.2668    5.1219 H         1 <0>         0.0000
     30 H10         0.2285   -3.7874    3.4940 H         1 <0>         0.0000
     31 H11         1.1825   -4.9365    4.4540 H         1 <0>         0.0000
     32 H12         3.2328   -1.8155    4.6326 H         1 <0>         0.0000
     33 H13         2.2908   -2.2979    3.2130 H         1 <0>         0.0000
     34 H14         3.2004   -3.5157    4.1363 H         1 <0>         0.0000
     35 H15         2.4078   -2.4118    6.9790 H         1 <0>         0.0000
     36 H16         0.9440   -3.3839    7.1857 H         1 <0>         0.0000
     37 H17         2.4219   -4.1258    6.5396 H         1 <0>         0.0000
     38 H18        -0.5052   -1.9896    5.3332 H         1 <0>         0.0000
     39 H19         1.8631    0.4265    3.6047 H         1 <0>         0.0000
@<TRIPOS>BOND
     1    1    2 ar
     2    1    4 ar
     3    1   21 1
     4    2    5 ar
     5    2   22 1
     6    3    5 ar
     7    3    6 ar
     8    3   23 1
     9    4    6 ar
    10    4    7 1
    11    5   10 1
    12    6   20 1
    13    7   16 2
    14    7   19 1
    15    8    9 1
    16    8   10 1
    17    8   24 1
    18    8   25 1
    19    9   10 1
    20    9   26 1
    21    9   27 1
    22   10   28 1
    23   11   14 1
    24   11   29 1
    25   11   30 1
    26   11   31 1
    27   12   14 1
    28   12   32 1
    29   12   33 1
    30   12   34 1
    31   13   14 1
    32   13   35 1
    33   13   36 1
    34   13   37 1
    35   14   15 1
    36   15   20 1
    37   15   38 1
    38   17   20 2
    39   18   20 2
    40   19   39 1
