@<TRIPOS>MOLECULE
*****
   29    30     0     0     0
SMALL
NO_CHARGES

@<TRIPOS>ATOM
      1 C1          0.2371    0.1008   -2.1358 C.ar      1 <0>         0.0000
      2 C2         -0.2144   -0.4750   -0.9527 C.ar      1 <0>         0.0000
      3 C3         -0.0386   -0.5121   -3.3573 C.ar      1 <0>         0.0000
      4 C4         -0.9412   -1.6644   -0.9907 C.ar      1 <0>         0.0000
      5 C5         -0.7777   -1.7045   -3.4109 C.ar      1 <0>         0.0000
      6 C6         -1.2272   -2.2944   -2.2141 C.ar      1 <0>         0.0000
      7 C7         -4.2303   -4.1972   -1.2289 C.2       1 <0>         0.0000
      8 C8         -1.0077   -2.3555   -4.7516 C.3       1 <0>         0.0000
      9 C9         -2.1116   -3.4093   -4.7346 C.3       1 <0>         0.0000
     10 C10        -1.9425   -4.3411   -3.5388 C.3       1 <0>         0.0000
     11 C11        -2.0377   -3.5721   -2.2148 C.3       1 <0>         0.0000
     12 C12        -5.6165   -3.6988   -0.9875 C.3       1 <0>         0.0000
     13 N1         -3.4183   -3.2939   -1.8829 N.am      1 <0>         0.0000
     14 O1         -3.9170   -5.3193   -0.8490 O.2       1 <0>         0.0000
     15 H1          0.8071    1.0246   -2.1083 H         1 <0>         0.0000
     16 H2         -0.0003    0.0003    0.0001 H         1 <0>         0.0000
     17 H3          0.3301   -0.0556   -4.2729 H         1 <0>         0.0000
     18 H4         -1.2862   -2.1012   -0.0565 H         1 <0>         0.0000
     19 H5         -1.2614   -1.5933   -5.4982 H         1 <0>         0.0000
     20 H6         -0.0664   -2.8243   -5.0657 H         1 <0>         0.0000
     21 H7         -3.0931   -2.9214   -4.6894 H         1 <0>         0.0000
     22 H8         -2.0842   -3.9843   -5.6673 H         1 <0>         0.0000
     23 H9         -2.6856   -5.1469   -3.5749 H         1 <0>         0.0000
     24 H10        -0.9599   -4.8273   -3.6034 H         1 <0>         0.0000
     25 H11        -1.6623   -4.2312   -1.4163 H         1 <0>         0.0000
     26 H12        -6.3013   -3.9426   -1.8156 H         1 <0>         0.0000
     27 H13        -6.0738   -4.1460   -0.0903 H         1 <0>         0.0000
     28 H14        -5.7081   -2.6099   -0.8469 H         1 <0>         0.0000
     29 H15        -3.8064   -2.3944   -2.1426 H         1 <0>         0.0000
@<TRIPOS>BOND
     1    1    2 ar
     2    1    3 ar
     3    1   15 1
     4    2    4 ar
     5    2   16 1
     6    3    5 ar
     7    3   17 1
     8    4    6 ar
     9    4   18 1
    10    5    6 ar
    11    5    8 1
    12    6   11 1
    13    7   12 1
    14    7   13 am
    15    7   14 2
    16    8    9 1
    17    8   19 1
    18    8   20 1
    19    9   10 1
    20    9   21 1
    21    9   22 1
    22   10   11 1
    23   10   23 1
    24   10   24 1
    25   11   13 1
    26   11   25 1
    27   12   26 1
    28   12   27 1
    29   12   28 1
    30   13   29 1
