@<TRIPOS>MOLECULE
*****
   51    54     0     0     0
SMALL
NO_CHARGES

@<TRIPOS>ATOM
      1 C1         -0.7389   -1.4258   -5.2579 C.1       1 <0>         0.0000
      2 C2         -3.9500    0.0816   -4.2296 C.ar      1 <0>         0.0000
      3 C3         -1.6837   -0.6878   -4.4812 C.ar      1 <0>         0.0000
      4 C4         -3.0394   -0.7530   -4.8717 C.ar      1 <0>         0.0000
      5 C5         -3.4882    0.9774   -3.2543 C.ar      1 <0>         0.0000
      6 C6         -1.3080    0.1887   -3.4138 C.ar      1 <0>         0.0000
      7 C7          0.0423   -0.4955    0.0167 C.2       1 <0>         0.0000
      8 C8          1.2734    1.9249    1.0616 C.3       1 <0>         0.0000
      9 C9         -3.9507   -0.5402    1.8252 C.3       1 <0>         0.0000
     10 C10        -3.3723    0.3180    0.7200 C.3       1 <0>         0.0000
     11 C11         2.0513    1.0795    0.0565 C.3       1 <0>         0.0000
     12 C12         1.8240   -0.7099   -1.7583 C.3       1 <0>         0.0000
     13 C13         0.4725    1.0171    1.9869 C.3       1 <0>         0.0000
     14 C14         0.9015   -0.9003   -2.9740 C.3       1 <0>         0.0000
     15 C15         0.3108    1.1421   -1.8188 C.3       1 <0>         0.0000
     16 C16        -2.6126    0.1432    2.0161 C.3       1 <0>         0.0000
     17 C17         1.0919    0.2603   -0.8100 C.3       1 <0>         0.0000
     18 C18        -3.4732   -1.6784   -5.9785 C.3       1 <0>         0.0000
     19 C19        -4.4398    1.9227   -2.5644 C.3       1 <0>         0.0000
     20 C20        -1.3410   -0.6838    2.0132 C.3       1 <0>         0.0000
     21 N1         -0.0151   -2.0192   -5.9565 N.1       1 <0>         0.0000
     22 N2         -2.2125    1.0256   -2.8640 N.ar      1 <0>         0.0000
     23 N3         -0.0306    0.2457   -2.9234 N.pl3     1 <0>         0.0000
     24 N4         -0.2524   -0.0355    1.2716 N.am      1 <0>         0.0000
     25 O1         -0.5601   -1.4546   -0.4826 O.2       1 <0>         0.0000
     26 H1         -5.0005    0.0659   -4.5039 H         1 <0>         0.0000
     27 H2          1.9473    2.5402    1.6669 H         1 <0>         0.0000
     28 H3          0.5987    2.6077    0.5336 H         1 <0>         0.0000
     29 H4         -4.8030   -0.1638    2.3835 H         1 <0>         0.0000
     30 H5         -3.9484   -1.6168    1.6786 H         1 <0>         0.0000
     31 H6         -2.9752   -0.1763   -0.1606 H         1 <0>         0.0000
     32 H7         -3.8280    1.2853    0.5314 H         1 <0>         0.0000
     33 H8          2.6750    1.7101   -0.5874 H         1 <0>         0.0000
     34 H9          2.7306    0.4031    0.5920 H         1 <0>         0.0000
     35 H10         2.0531   -1.6646   -1.2807 H         1 <0>         0.0000
     36 H11         2.7686   -0.2477   -2.0649 H         1 <0>         0.0000
     37 H12         1.1450    0.5490    2.7220 H         1 <0>         0.0000
     38 H13        -0.2554    1.6076    2.5529 H         1 <0>         0.0000
     39 H14         1.4664   -0.9180   -3.9083 H         1 <0>         0.0000
     40 H15         0.3335   -1.8277   -2.8875 H         1 <0>         0.0000
     41 H16        -0.5924    1.5917   -1.4131 H         1 <0>         0.0000
     42 H17         0.9687    1.9479   -2.1757 H         1 <0>         0.0000
     43 H18        -2.6126    1.0002    2.6870 H         1 <0>         0.0000
     44 H19        -2.9818   -1.4159   -6.9212 H         1 <0>         0.0000
     45 H20        -3.1955   -2.7137   -5.7564 H         1 <0>         0.0000
     46 H21        -4.5546   -1.6304   -6.1255 H         1 <0>         0.0000
     47 H22        -4.8667    1.4412   -1.6771 H         1 <0>         0.0000
     48 H23        -3.9091    2.8190   -2.2359 H         1 <0>         0.0000
     49 H24        -5.2680    2.2085   -3.2191 H         1 <0>         0.0000
     50 H25        -1.5209   -1.6488    1.5401 H         1 <0>         0.0000
     51 H26        -0.9993   -0.8668    3.0396 H         1 <0>         0.0000
@<TRIPOS>BOND
     1    1    3 1
     2    1   21 3
     3    2    4 ar
     4    2    5 ar
     5    2   26 1
     6    3    4 ar
     7    3    6 ar
     8    4   18 1
     9    5   19 1
    10    5   22 ar
    11    6   22 ar
    12    6   23 1
    13    7   17 1
    14    7   24 am
    15    7   25 2
    16    8   11 1
    17    8   13 1
    18    8   27 1
    19    8   28 1
    20    9   10 1
    21    9   16 1
    22    9   29 1
    23    9   30 1
    24   10   16 1
    25   10   31 1
    26   10   32 1
    27   11   17 1
    28   11   33 1
    29   11   34 1
    30   12   14 1
    31   12   17 1
    32   12   35 1
    33   12   36 1
    34   13   24 1
    35   13   37 1
    36   13   38 1
    37   14   23 1
    38   14   39 1
    39   14   40 1
    40   15   17 1
    41   15   23 1
    42   15   41 1
    43   15   42 1
    44   16   20 1
    45   16   43 1
    46   18   44 1
    47   18   45 1
    48   18   46 1
    49   19   47 1
    50   19   48 1
    51   19   49 1
    52   20   24 1
    53   20   50 1
    54   20   51 1
