@<TRIPOS>MOLECULE
*****
   41    43     0     0     0
SMALL
NO_CHARGES

@<TRIPOS>ATOM
      1 C1         -7.8394    6.3356   -5.3358 C.ar      1 <0>         0.0000
      2 C2         -6.7951    5.4476   -5.0737 C.ar      1 <0>         0.0000
      3 C3         -2.5073   -0.2387   -2.0182 C.ar      1 <0>         0.0000
      4 C4         -3.4276   -1.2783   -2.1288 C.ar      1 <0>         0.0000
      5 C5         -3.3765    1.8816   -4.9612 C.2       1 <0>         0.0000
      6 C6         -4.3636   -0.2676   -4.1323 C.ar      1 <0>         0.0000
      7 C7         -5.5438    6.4341   -6.8943 C.ar      1 <0>         0.0000
      8 C8         -3.4370    0.7894   -4.0279 C.ar      1 <0>         0.0000
      9 C9         -2.4776    2.8952   -4.8214 C.2       1 <0>         0.0000
     10 C10        -7.7658    7.2796   -6.3665 C.ar      1 <0>         0.0000
     11 C11        -6.5924    7.3221   -7.1521 C.ar      1 <0>         0.0000
     12 C12        -5.6356    5.4930   -5.8585 C.ar      1 <0>         0.0000
     13 C13        -2.5173    0.7886   -2.9641 C.ar      1 <0>         0.0000
     14 C14        -4.3510   -1.2822   -3.1868 C.ar      1 <0>         0.0000
     15 C15        -1.5392    2.8880   -3.6830 C.2       1 <0>         0.0000
     16 C16        -2.3867    4.0092   -5.8091 C.2       1 <0>         0.0000
     17 C17        -8.9140    8.2265   -6.6268 C.3       1 <0>         0.0000
     18 C18        -6.4608    8.3256   -8.2744 C.3       1 <0>         0.0000
     19 C19        -1.0586    4.2698   -6.4712 C.3       1 <0>         0.0000
     20 N1         -3.3916    4.7380   -6.1693 N.2       1 <0>         0.0000
     21 N2         -4.6147    4.5584   -5.6107 N.pl3     1 <0>         0.0000
     22 O1         -0.7239    3.7470   -3.4293 O.2       1 <0>         0.0000
     23 O2         -1.6047    1.7938   -2.8204 O.3       1 <0>         0.0000
     24 Br1        -5.6161   -2.7133   -3.3206 Br        1 <0>         0.0000
     25 H1         -8.7335    6.2913   -4.7177 H         1 <0>         0.0000
     26 H2         -6.8822    4.7257   -4.2636 H         1 <0>         0.0000
     27 H3         -1.7840   -0.2111   -1.2093 H         1 <0>         0.0000
     28 H4         -3.4318   -2.0815   -1.3996 H         1 <0>         0.0000
     29 H5         -4.0667    1.8893   -5.8021 H         1 <0>         0.0000
     30 H6         -5.0788   -0.2771   -4.9490 H         1 <0>         0.0000
     31 H7         -4.6399    6.4644   -7.4925 H         1 <0>         0.0000
     32 H8         -8.6070    9.2749   -6.5296 H         1 <0>         0.0000
     33 H9         -9.3173    8.1077   -7.6399 H         1 <0>         0.0000
     34 H10        -9.7322    8.0541   -5.9222 H         1 <0>         0.0000
     35 H11        -7.2537    8.1975   -9.0208 H         1 <0>         0.0000
     36 H12        -6.5396    9.3540   -7.9025 H         1 <0>         0.0000
     37 H13        -5.4996    8.2262   -8.7848 H         1 <0>         0.0000
     38 H14        -0.6788    3.3619   -6.9559 H         1 <0>         0.0000
     39 H15        -1.1790    5.0510   -7.2243 H         1 <0>         0.0000
     40 H16        -0.3132    4.5865   -5.7366 H         1 <0>         0.0000
     41 H17        -4.6735    4.0591   -4.7248 H         1 <0>         0.0000
@<TRIPOS>BOND
     1    1    2 ar
     2    1   10 ar
     3    1   25 1
     4    2   12 ar
     5    2   26 1
     6    3    4 ar
     7    3   13 ar
     8    3   27 1
     9    4   14 ar
    10    4   28 1
    11    5    8 1
    12    5    9 2
    13    5   29 1
    14    6    8 ar
    15    6   14 ar
    16    6   30 1
    17    7   11 ar
    18    7   12 ar
    19    7   31 1
    20    8   13 ar
    21    9   15 1
    22    9   16 1
    23   10   11 ar
    24   10   17 1
    25   11   18 1
    26   12   21 1
    27   13   23 1
    28   14   24 1
    29   15   22 2
    30   15   23 1
    31   16   19 1
    32   16   20 2
    33   17   32 1
    34   17   33 1
    35   17   34 1
    36   18   35 1
    37   18   36 1
    38   18   37 1
    39   19   38 1
    40   19   39 1
    41   19   40 1
    42   20   21 1
    43   21   41 1
