@<TRIPOS>MOLECULE
*****
   25    26     0     0     0
SMALL
NO_CHARGES

@<TRIPOS>ATOM
      1 C1          1.7946   -2.4286    0.7662 C.ar      1 <0>         0.0000
      2 C2          0.6471   -1.8660    1.3230 C.ar      1 <0>         0.0000
      3 C3          3.0042   -1.7283    0.7452 C.ar      1 <0>         0.0000
      4 C4          1.9249    0.1350    1.8566 C.ar      1 <0>         0.0000
      5 C5          0.7121   -0.5761    1.8775 C.ar      1 <0>         0.0000
      6 C6          3.0672   -0.4410    1.2919 C.ar      1 <0>         0.0000
      7 C7         -4.6757    2.9935    2.5801 C.2       1 <0>         0.0000
      8 C8         -3.1371    1.3710    2.7060 C.2       1 <0>         0.0000
      9 C9         -0.4520    0.0654    2.4914 C.2       1 <0>         0.0000
     10 C10        -3.6580    3.5392    1.5489 C.3       1 <0>         0.0000
     11 N1         -4.2892    1.7882    3.1518 N.2       1 <0>         0.0000
     12 N2         -1.5842   -0.5425    2.5855 N.2       1 <0>         0.0000
     13 N3         -2.6304    0.1881    3.1495 N.pl3     1 <0>         0.0000
     14 O1         -5.7051    3.5968    2.8214 O.2       1 <0>         0.0000
     15 O2          4.2765    0.2054    1.2443 O.3       1 <0>         0.0000
     16 S1         -2.2719    2.3573    1.4891 S.3       1 <0>         0.0000
     17 H1          1.7530   -3.4259    0.3368 H         1 <0>         0.0000
     18 H2         -0.2947   -2.4034    1.3345 H         1 <0>         0.0000
     19 H3          3.9010   -2.1588    0.3098 H         1 <0>         0.0000
     20 H4          1.9717    1.1369    2.2823 H         1 <0>         0.0000
     21 H5         -0.3108    1.0769    2.8830 H         1 <0>         0.0000
     22 H6         -4.1363    3.6202    0.5713 H         1 <0>         0.0000
     23 H7         -3.3068    4.5244    1.8598 H         1 <0>         0.0000
     24 H8         -3.3319   -0.4058    3.5808 H         1 <0>         0.0000
     25 H9          4.1902    1.0833    1.6486 H         1 <0>         0.0000
@<TRIPOS>BOND
     1    1    2 ar
     2    1    3 ar
     3    1   17 1
     4    2    5 ar
     5    2   18 1
     6    3    6 ar
     7    3   19 1
     8    4    5 ar
     9    4    6 ar
    10    4   20 1
    11    5    9 1
    12    6   15 1
    13    7   10 1
    14    7   11 1
    15    7   14 2
    16    8   11 2
    17    8   13 1
    18    8   16 1
    19    9   12 2
    20    9   21 1
    21   10   16 1
    22   10   22 1
    23   10   23 1
    24   12   13 1
    25   13   24 1
    26   15   25 1
