@<TRIPOS>MOLECULE
*****
   29    31     0     0     0
SMALL
NO_CHARGES

@<TRIPOS>ATOM
      1 C1         -1.5249   -4.9313  -10.9184 C.ar      1 <0>         0.0000
      2 C2          2.8711    0.8033   -4.4896 C.ar      1 <0>         0.0000
      3 C3          2.9403    1.3642   -5.7774 C.ar      1 <0>         0.0000
      4 C4         -1.0372   -5.9339  -11.7628 C.ar      1 <0>         0.0000
      5 C5         -1.1450   -4.9083   -9.5767 C.ar      1 <0>         0.0000
      6 C6          2.3833   -0.4924   -4.2744 C.ar      1 <0>         0.0000
      7 C7          2.5211    0.6466   -6.9095 C.ar      1 <0>         0.0000
      8 C8         -0.1774   -6.9143  -11.2612 C.ar      1 <0>         0.0000
      9 C9         -0.2719   -5.8787   -9.0450 C.ar      1 <0>         0.0000
     10 C10         1.9628   -1.2167   -5.3926 C.ar      1 <0>         0.0000
     11 C11         2.0437   -0.6297   -6.6663 C.ar      1 <0>         0.0000
     12 C12         0.1925   -6.8795   -9.9160 C.ar      1 <0>         0.0000
     13 C13         1.2326   -2.6414   -6.7838 C.2       1 <0>         0.0000
     14 C14         0.0768   -5.8718   -7.6032 C.2       1 <0>         0.0000
     15 N1          1.4336   -2.5113   -5.5109 N.2       1 <0>         0.0000
     16 N2          0.4847   -4.8803   -6.8899 N.2       1 <0>         0.0000
     17 N3          0.6932   -3.6797   -7.4982 N.pl3     1 <0>         0.0000
     18 O1          1.5654   -1.5626   -7.5799 O.3       1 <0>         0.0000
     19 Br1         1.3845   -8.2377   -9.2702 Br        1 <0>         0.0000
     20 H1         -2.2049   -4.1755  -11.3007 H         1 <0>         0.0000
     21 H2          3.2056    1.3920   -3.6398 H         1 <0>         0.0000
     22 H3          3.3253    2.3723   -5.9018 H         1 <0>         0.0000
     23 H4         -1.3259   -5.9600  -12.8098 H         1 <0>         0.0000
     24 H5         -1.5487   -4.1479   -8.9137 H         1 <0>         0.0000
     25 H6          2.3308   -0.9243   -3.2796 H         1 <0>         0.0000
     26 H7          2.5694    1.0668   -7.9093 H         1 <0>         0.0000
     27 H8          0.2046   -7.6976  -11.9078 H         1 <0>         0.0000
     28 H9         -0.0177   -6.8061   -7.0552 H         1 <0>         0.0000
     29 H10         0.7456   -3.6068   -8.5130 H         1 <0>         0.0000
@<TRIPOS>BOND
     1    1    4 ar
     2    1    5 ar
     3    1   20 1
     4    2    3 ar
     5    2    6 ar
     6    2   21 1
     7    3    7 ar
     8    3   22 1
     9    4    8 ar
    10    4   23 1
    11    5    9 ar
    12    5   24 1
    13    6   10 ar
    14    6   25 1
    15    7   11 ar
    16    7   26 1
    17    8   12 ar
    18    8   27 1
    19    9   12 ar
    20    9   14 1
    21   10   11 ar
    22   10   15 1
    23   11   18 1
    24   12   19 1
    25   13   15 2
    26   13   17 1
    27   13   18 1
    28   14   16 2
    29   14   28 1
    30   16   17 1
    31   17   29 1
