@<TRIPOS>MOLECULE
*****
   31    33     0     0     0
SMALL
NO_CHARGES

@<TRIPOS>ATOM
      1 C1         -7.9787    3.2897    5.1373 C.1       1 <0>         0.0000
      2 C2         -2.5366   -1.0984    0.1893 C.ar      1 <0>         0.0000
      3 C3         -2.8700   -0.0561   -0.6708 C.ar      1 <0>         0.0000
      4 C4         -3.9542    1.1903    1.1468 C.ar      1 <0>         0.0000
      5 C5         -3.2511   -1.3047    3.7373 C.2       1 <0>         0.0000
      6 C6         -8.2811    2.7767    3.8488 C.2       1 <0>         0.0000
      7 C7         -3.6547    0.1266    2.0229 C.ar      1 <0>         0.0000
      8 C8         -3.8675   -0.0999    3.4419 C.2       1 <0>         0.0000
      9 C9         -2.9289   -0.9928    1.5277 C.ar      1 <0>         0.0000
     10 C10        -3.5649    1.0683   -0.1802 C.ar      1 <0>         0.0000
     11 C11        -7.5466    1.9267    3.0521 C.2       1 <0>         0.0000
     12 C12        -9.4085    2.4654    2.0399 C.2       1 <0>         0.0000
     13 C13        -4.5463    0.7375    4.4346 C.2       1 <0>         0.0000
     14 C14       -10.3749    2.4236    0.9121 C.3       1 <0>         0.0000
     15 N1         -7.7600    3.7291    6.1956 N.1       1 <0>         0.0000
     16 N2         -9.4674    3.0984    3.1605 N.2       1 <0>         0.0000
     17 N3         -5.6454    1.4022    4.3115 N.2       1 <0>         0.0000
     18 N4         -2.7014   -1.8438    2.5975 N.pl3     1 <0>         0.0000
     19 N5         -6.3246    1.3193    3.1288 N.pl3     1 <0>         0.0000
     20 O1         -8.2389    1.7130    1.9002 O.3       1 <0>         0.0000
     21 Br1        -3.9807    2.4874   -1.4046 Br        1 <0>         0.0000
     22 H1         -1.9839   -1.9596   -0.1767 H         1 <0>         0.0000
     23 H2         -2.5875   -0.1007   -1.7170 H         1 <0>         0.0000
     24 H3         -4.4629    2.0813    1.4960 H         1 <0>         0.0000
     25 H4         -3.1817   -1.8204    4.6862 H         1 <0>         0.0000
     26 H5         -4.1011    0.8151    5.4247 H         1 <0>         0.0000
     27 H6         -9.9140    2.7853   -0.0128 H         1 <0>         0.0000
     28 H7        -10.7287    1.4026    0.7347 H         1 <0>         0.0000
     29 H8        -11.2260    3.0585    1.1600 H         1 <0>         0.0000
     30 H9         -2.2091   -2.7251    2.5503 H         1 <0>         0.0000
     31 H10        -6.1265    0.5771    2.4588 H         1 <0>         0.0000
@<TRIPOS>BOND
     1    1    6 1
     2    1   15 3
     3    2    3 ar
     4    2    9 ar
     5    2   22 1
     6    3   10 ar
     7    3   23 1
     8    4    7 ar
     9    4   10 ar
    10    4   24 1
    11    5    8 2
    12    5   18 1
    13    5   25 1
    14    6   11 2
    15    6   16 1
    16    7    8 1
    17    7    9 ar
    18    8   13 1
    19    9   18 1
    20   10   21 1
    21   11   19 1
    22   11   20 1
    23   12   14 1
    24   12   16 2
    25   12   20 1
    26   13   17 2
    27   13   26 1
    28   14   27 1
    29   14   28 1
    30   14   29 1
    31   17   19 1
    32   18   30 1
    33   19   31 1
