@<TRIPOS>MOLECULE
*****
   25    26     0     0     0
SMALL
NO_CHARGES

@<TRIPOS>ATOM
      1 C1          1.5100   -2.0424    0.1589 C.ar      1 <0>         0.0000
      2 C2          0.4891   -1.2702    0.7027 C.ar      1 <0>         0.0000
      3 C3          2.8449   -1.8448    0.5385 C.ar      1 <0>         0.0000
      4 C4          2.1395   -0.0721    2.0333 C.ar      1 <0>         0.0000
      5 C5          0.8064   -0.2753    1.6491 C.ar      1 <0>         0.0000
      6 C6          3.1562   -0.8563    1.4782 C.ar      1 <0>         0.0000
      7 C7         -5.6345    0.5729    1.4611 C.2       1 <0>         0.0000
      8 C8         -3.6822    1.2110    2.3232 C.2       1 <0>         0.0000
      9 C9         -0.2301    0.5650    2.2520 C.2       1 <0>         0.0000
     10 C10        -6.1455    1.6987    2.3994 C.3       1 <0>         0.0000
     11 N1         -4.2545    0.3906    1.5003 N.2       1 <0>         0.0000
     12 N2         -1.4706    0.4263    1.9434 N.2       1 <0>         0.0000
     13 N3         -2.3485    1.2650    2.5681 N.pl3     1 <0>         0.0000
     14 O1         -6.4136   -0.0611    0.7757 O.2       1 <0>         0.0000
     15 O2          4.4398   -0.6057    1.8978 O.3       1 <0>         0.0000
     16 S1         -4.6838    2.3897    3.2368 S.3       1 <0>         0.0000
     17 H1          1.2752   -2.8118   -0.5715 H         1 <0>         0.0000
     18 H2         -0.5455   -1.4187    0.4128 H         1 <0>         0.0000
     19 H3          3.6341   -2.4566    0.1046 H         1 <0>         0.0000
     20 H4          2.4064    0.6896    2.7615 H         1 <0>         0.0000
     21 H5          0.1029    1.3190    2.9802 H         1 <0>         0.0000
     22 H6         -6.6513    2.4650    1.8101 H         1 <0>         0.0000
     23 H7         -6.8449    1.2810    3.1252 H         1 <0>         0.0000
     24 H8         -2.0053    1.9527    3.2395 H         1 <0>         0.0000
     25 H9          5.0473   -1.2105    1.4433 H         1 <0>         0.0000
@<TRIPOS>BOND
     1    1    2 ar
     2    1    3 ar
     3    1   17 1
     4    2    5 ar
     5    2   18 1
     6    3    6 ar
     7    3   19 1
     8    4    5 ar
     9    4    6 ar
    10    4   20 1
    11    5    9 1
    12    6   15 1
    13    7   10 1
    14    7   11 1
    15    7   14 2
    16    8   11 2
    17    8   13 1
    18    8   16 1
    19    9   12 2
    20    9   21 1
    21   10   16 1
    22   10   22 1
    23   10   23 1
    24   12   13 1
    25   13   24 1
    26   15   25 1
