@<TRIPOS>MOLECULE
*****
   31    33     0     0     0
SMALL
NO_CHARGES

@<TRIPOS>ATOM
      1 C1         -0.8756    0.7635   -3.5075 C.ar      1 <0>         0.0000
      2 C2         -1.2421    0.5121   -2.1785 C.ar      1 <0>         0.0000
      3 C3         -2.2942   -4.1437   -9.1960 C.ar      1 <0>         0.0000
      4 C4         -2.1282   -3.3585   -8.0524 C.ar      1 <0>         0.0000
      5 C5         -1.2835   -0.1086   -4.5110 C.ar      1 <0>         0.0000
      6 C6         -3.5168   -4.1616   -9.8742 C.ar      1 <0>         0.0000
      7 C7         -2.0148   -0.6038   -1.8742 C.ar      1 <0>         0.0000
      8 C8         -4.4077   -2.5521   -8.2713 C.ar      1 <0>         0.0000
      9 C9         -3.1873   -2.5663   -7.5852 C.ar      1 <0>         0.0000
     10 C10        -2.0721   -1.2312   -4.2169 C.ar      1 <0>         0.0000
     11 C11        -4.5494   -3.3621   -9.3911 C.ar      1 <0>         0.0000
     12 C12        -2.4461   -1.4825   -2.8841 C.ar      1 <0>         0.0000
     13 C13        -3.0181   -1.6205   -6.4269 C.2       1 <0>         0.0000
     14 C14        -2.5707   -3.5382   -4.8902 C.3       1 <0>         0.0000
     15 C15        -3.7363   -3.7269   -3.9224 C.3       1 <0>         0.0000
     16 N1         -2.4310   -2.1295   -5.2720 N.am      1 <0>         0.0000
     17 O1         -3.3466   -0.4447   -6.5479 O.2       1 <0>         0.0000
     18 F1         -5.7376   -3.3673  -10.0461 F         1 <0>         0.0000
     19 S1         -3.4374   -2.8580   -2.3429 S.3       1 <0>         0.0000
     20 H1         -0.2717    1.6308   -3.7582 H         1 <0>         0.0000
     21 H2         -0.9259    1.1814   -1.3831 H         1 <0>         0.0000
     22 H3         -1.4680   -4.7450   -9.5650 H         1 <0>         0.0000
     23 H4         -1.1736   -3.3446   -7.5339 H         1 <0>         0.0000
     24 H5         -1.0062    0.0772   -5.5428 H         1 <0>         0.0000
     25 H6         -3.6736   -4.7687  -10.7604 H         1 <0>         0.0000
     26 H7         -2.2998   -0.8016   -0.8436 H         1 <0>         0.0000
     27 H8         -5.2222   -1.9128   -7.9461 H         1 <0>         0.0000
     28 H9         -1.6359   -3.8767   -4.4331 H         1 <0>         0.0000
     29 H10        -2.7499   -4.1359   -5.7813 H         1 <0>         0.0000
     30 H11        -4.6624   -3.3678   -4.3790 H         1 <0>         0.0000
     31 H12        -3.8572   -4.7840   -3.6702 H         1 <0>         0.0000
@<TRIPOS>BOND
     1    1    2 ar
     2    1    5 ar
     3    1   20 1
     4    2    7 ar
     5    2   21 1
     6    3    4 ar
     7    3    6 ar
     8    3   22 1
     9    4    9 ar
    10    4   23 1
    11    5   10 ar
    12    5   24 1
    13    6   11 ar
    14    6   25 1
    15    7   12 ar
    16    7   26 1
    17    8    9 ar
    18    8   11 ar
    19    8   27 1
    20    9   13 1
    21   10   12 ar
    22   10   16 1
    23   11   18 1
    24   12   19 1
    25   13   16 am
    26   13   17 2
    27   14   15 1
    28   14   16 1
    29   14   28 1
    30   14   29 1
    31   15   19 1
    32   15   30 1
    33   15   31 1
