@<TRIPOS>MOLECULE
*****
   20    20     0     0     0
SMALL
NO_CHARGES

@<TRIPOS>ATOM
      1 C1         -0.8948    3.0644   -1.0599 C.1       1 <0>         0.0000
      2 C2          2.0817   -0.8187   -0.0511 C.ar      1 <0>         0.0000
      3 C3          1.7724   -1.2904    2.6919 C.ar      1 <0>         0.0000
      4 C4          0.9934   -0.2571    0.6229 C.ar      1 <0>         0.0000
      5 C5          2.9982   -1.6034    0.6502 C.ar      1 <0>         0.0000
      6 C6          0.8613   -0.5120    2.0001 C.ar      1 <0>         0.0000
      7 C7          2.8624   -1.8484    2.0119 C.ar      1 <0>         0.0000
      8 C8         -1.0108    1.7445   -1.6949 C.3       1 <0>         0.0000
      9 C9          0.1485    0.8163   -1.3345 C.3       1 <0>         0.0000
     10 N1         -0.7858    4.1148   -0.5747 N.1       1 <0>         0.0000
     11 O1          0.0338    0.5228    0.0550 O.3       1 <0>         0.0000
     12 F1          4.0351   -2.1274   -0.0359 F         1 <0>         0.0000
     13 F2         -0.1899    0.0219    2.6567 F         1 <0>         0.0000
     14 Br1         4.1326   -2.9220    2.9363 Br        1 <0>         0.0000
     15 H1          2.2472   -0.6686   -1.1110 H         1 <0>         0.0000
     16 H2          1.6296   -1.4571    3.7541 H         1 <0>         0.0000
     17 H3         -1.9568    1.2856   -1.3927 H         1 <0>         0.0000
     18 H4         -1.0367    1.8818   -2.7808 H         1 <0>         0.0000
     19 H5          1.1094    1.2988   -1.5475 H         1 <0>         0.0000
     20 H6          0.0721   -0.1058   -1.9247 H         1 <0>         0.0000
@<TRIPOS>BOND
     1    1    8 1
     2    1   10 3
     3    2    4 ar
     4    2    5 ar
     5    2   15 1
     6    3    6 ar
     7    3    7 ar
     8    3   16 1
     9    4    6 ar
    10    4   11 1
    11    5    7 ar
    12    5   12 1
    13    6   13 1
    14    7   14 1
    15    8    9 1
    16    8   17 1
    17    8   18 1
    18    9   11 1
    19    9   19 1
    20    9   20 1
