@<TRIPOS>MOLECULE
*****
   31    33     0     0     0
SMALL
NO_CHARGES

@<TRIPOS>ATOM
      1 C1         -5.4319    5.9600    3.6818 C.1       1 <0>         0.0000
      2 C2         -1.6749   -2.1530    1.4180 C.ar      1 <0>         0.0000
      3 C3         -0.3948   -2.0625    1.9568 C.ar      1 <0>         0.0000
      4 C4         -0.8883    0.1267    2.9533 C.ar      1 <0>         0.0000
      5 C5         -4.3343    0.3010    1.7253 C.2       1 <0>         0.0000
      6 C6         -5.8609    5.5703    2.3852 C.2       1 <0>         0.0000
      7 C7         -2.1873    0.0439    2.4202 C.ar      1 <0>         0.0000
      8 C8         -3.3330    0.9324    2.4564 C.2       1 <0>         0.0000
      9 C9         -2.5582   -1.0953    1.6592 C.ar      1 <0>         0.0000
     10 C10        -0.0217   -0.9308    2.7117 C.ar      1 <0>         0.0000
     11 C11        -5.6288    4.3988    1.7029 C.2       1 <0>         0.0000
     12 C12        -6.8671    5.7303    0.4879 C.2       1 <0>         0.0000
     13 C13        -3.3848    2.1770    3.2121 C.2       1 <0>         0.0000
     14 C14        -7.6331    6.1010   -0.7303 C.3       1 <0>         0.0000
     15 N1         -5.1058    6.3112    4.7450 N.1       1 <0>         0.0000
     16 N2         -6.6594    6.3966    1.5708 N.2       1 <0>         0.0000
     17 N3         -4.1232    3.2212    3.0384 N.2       1 <0>         0.0000
     18 N4         -3.8717   -0.9078    1.2565 N.pl3     1 <0>         0.0000
     19 N5         -4.9976    3.2088    1.9730 N.pl3     1 <0>         0.0000
     20 O1         -6.2572    4.4730    0.4969 O.3       1 <0>         0.0000
     21 Br1         1.7609   -0.8571    3.4188 Br        1 <0>         0.0000
     22 H1         -1.9663   -3.0206    0.8322 H         1 <0>         0.0000
     23 H2          0.3214   -2.8609    1.7961 H         1 <0>         0.0000
     24 H3         -0.5648    0.9881    3.5282 H         1 <0>         0.0000
     25 H4         -5.3653    0.5876    1.5703 H         1 <0>         0.0000
     26 H5         -2.6977    2.2701    4.0510 H         1 <0>         0.0000
     27 H6         -6.9883    6.1009   -1.6153 H         1 <0>         0.0000
     28 H7         -8.4522    5.3968   -0.9099 H         1 <0>         0.0000
     29 H8         -8.0458    7.1004   -0.5899 H         1 <0>         0.0000
     30 H9         -4.4163   -1.5623    0.7121 H         1 <0>         0.0000
     31 H10        -4.7437    2.6571    1.1501 H         1 <0>         0.0000
@<TRIPOS>BOND
     1    1    6 1
     2    1   15 3
     3    2    3 ar
     4    2    9 ar
     5    2   22 1
     6    3   10 ar
     7    3   23 1
     8    4    7 ar
     9    4   10 ar
    10    4   24 1
    11    5    8 2
    12    5   18 1
    13    5   25 1
    14    6   11 2
    15    6   16 1
    16    7    8 1
    17    7    9 ar
    18    8   13 1
    19    9   18 1
    20   10   21 1
    21   11   19 1
    22   11   20 1
    23   12   14 1
    24   12   16 2
    25   12   20 1
    26   13   17 2
    27   13   26 1
    28   14   27 1
    29   14   28 1
    30   14   29 1
    31   17   19 1
    32   18   30 1
    33   19   31 1
