@<TRIPOS>MOLECULE
*****
   31    33     0     0     0
SMALL
NO_CHARGES

@<TRIPOS>ATOM
      1 C1         -8.9256    0.4751    0.7779 C.1       1 <0>         0.0000
      2 C2         -1.0971    0.6427   -0.5696 C.ar      1 <0>         0.0000
      3 C3         -0.1741    1.5595   -0.0750 C.ar      1 <0>         0.0000
      4 C4         -1.5454    1.9751    1.9191 C.ar      1 <0>         0.0000
      5 C5         -4.2253   -0.3416    0.9879 C.2       1 <0>         0.0000
      6 C6         -8.9445    0.6265    2.1854 C.2       1 <0>         0.0000
      7 C7         -2.4828    1.0460    1.4331 C.ar      1 <0>         0.0000
      8 C8         -3.7580    0.5677    1.9337 C.2       1 <0>         0.0000
      9 C9         -2.2424    0.3957    0.1947 C.ar      1 <0>         0.0000
     10 C10        -0.4101    2.2087    1.1546 C.ar      1 <0>         0.0000
     11 C11        -7.8295    0.6704    2.9974 C.2       1 <0>         0.0000
     12 C12        -9.6380    0.8361    4.2011 C.2       1 <0>         0.0000
     13 C13        -4.3311    0.9613    3.2131 C.2       1 <0>         0.0000
     14 C14       -10.3739    0.9939    5.4817 C.3       1 <0>         0.0000
     15 N1         -8.8043    0.3402   -0.3766 N.1       1 <0>         0.0000
     16 N2        -10.0858    0.7341    2.9945 N.2       1 <0>         0.0000
     17 N3         -5.5616    0.9590    3.6117 N.2       1 <0>         0.0000
     18 N4         -3.3178   -0.4470   -0.0396 N.pl3     1 <0>         0.0000
     19 N5         -6.5017    0.5270    2.7016 N.pl3     1 <0>         0.0000
     20 O1         -8.2415    0.8004    4.2771 O.3       1 <0>         0.0000
     21 Br1         0.8915    3.4740    1.7799 Br        1 <0>         0.0000
     22 H1         -0.9240    0.1434   -1.5191 H         1 <0>         0.0000
     23 H2          0.7279    1.7806   -0.6352 H         1 <0>         0.0000
     24 H3         -1.7010    2.5029    2.8541 H         1 <0>         0.0000
     25 H4         -5.1011   -0.9758    1.0003 H         1 <0>         0.0000
     26 H5         -3.6377    1.3402    3.9615 H         1 <0>         0.0000
     27 H6        -10.1332    0.1811    6.1742 H         1 <0>         0.0000
     28 H7        -10.1115    1.9387    5.9688 H         1 <0>         0.0000
     29 H8        -11.4441    0.9839    5.2726 H         1 <0>         0.0000
     30 H9         -3.4393   -1.0312   -0.8556 H         1 <0>         0.0000
     31 H10        -6.2878    0.6278    1.7071 H         1 <0>         0.0000
@<TRIPOS>BOND
     1    1    6 1
     2    1   15 3
     3    2    3 ar
     4    2    9 ar
     5    2   22 1
     6    3   10 ar
     7    3   23 1
     8    4    7 ar
     9    4   10 ar
    10    4   24 1
    11    5    8 2
    12    5   18 1
    13    5   25 1
    14    6   11 2
    15    6   16 1
    16    7    8 1
    17    7    9 ar
    18    8   13 1
    19    9   18 1
    20   10   21 1
    21   11   19 1
    22   11   20 1
    23   12   14 1
    24   12   16 2
    25   12   20 1
    26   13   17 2
    27   13   26 1
    28   14   27 1
    29   14   28 1
    30   14   29 1
    31   17   19 1
    32   18   30 1
    33   19   31 1
