@<TRIPOS>MOLECULE
*****
   40    42     0     0     0
SMALL
NO_CHARGES

@<TRIPOS>ATOM
      1 C1         -0.8006    4.8256    1.3694 C.1       1 <0>         0.0000
      2 C2          4.6489    2.7901    5.4094 C.ar      1 <0>         0.0000
      3 C3          4.0745    5.1202    5.2805 C.ar      1 <0>         0.0000
      4 C4          3.6171    2.4817    4.5224 C.ar      1 <0>         0.0000
      5 C5          3.0386    4.8347    4.3928 C.ar      1 <0>         0.0000
      6 C6          4.9002    4.1119    5.8046 C.ar      1 <0>         0.0000
      7 C7          2.8082    3.5057    4.0107 C.ar      1 <0>         0.0000
      8 C8         -0.2535    2.3624    1.3161 C.2       1 <0>         0.0000
      9 C9         -1.0211    0.5536    0.3544 C.2       1 <0>         0.0000
     10 C10         0.0157    3.7218    1.7819 C.2       1 <0>         0.0000
     11 C11        -1.8594   -0.3642   -0.4720 C.3       1 <0>         0.0000
     12 C12        -3.3645   -0.2904   -0.1418 C.3       1 <0>         0.0000
     13 C13        -4.0791    0.9600   -0.6753 C.3       1 <0>         0.0000
     14 C14        -3.5946    2.3068   -0.1179 C.3       1 <0>         0.0000
     15 C15        -2.1390    2.6542   -0.4491 C.3       1 <0>         0.0000
     16 C16         6.0397    4.4461    6.7388 C.3       1 <0>         0.0000
     17 N1         -1.4837    5.7088    1.0288 N.1       1 <0>         0.0000
     18 N2          0.4158    1.3093    1.7867 N.2       1 <0>         0.0000
     19 N3         -0.0705    0.1763    1.1862 N.2       1 <0>         0.0000
     20 N4          0.9751    4.0588    2.6259 N.2       1 <0>         0.0000
     21 N5         -1.1774    1.9208    0.3862 N.pl3     1 <0>         0.0000
     22 N6          1.7784    3.1497    3.1224 N.pl3     1 <0>         0.0000
     23 H1          5.2665    1.9851    5.8010 H         1 <0>         0.0000
     24 H2          4.2440    6.1539    5.5743 H         1 <0>         0.0000
     25 H3          3.4355    1.4501    4.2298 H         1 <0>         0.0000
     26 H4          2.4068    5.6220    3.9972 H         1 <0>         0.0000
     27 H5         -1.7063   -0.1581   -1.5401 H         1 <0>         0.0000
     28 H6         -1.4802   -1.3713   -0.2838 H         1 <0>         0.0000
     29 H7         -3.8481   -1.1729   -0.5753 H         1 <0>         0.0000
     30 H8         -3.4949   -0.3649    0.9446 H         1 <0>         0.0000
     31 H9         -3.9865    0.9802   -1.7702 H         1 <0>         0.0000
     32 H10        -5.1503    0.8649   -0.4633 H         1 <0>         0.0000
     33 H11        -4.2199    3.1026   -0.5380 H         1 <0>         0.0000
     34 H12        -3.7275    2.3477    0.9696 H         1 <0>         0.0000
     35 H13        -1.9162    2.4222   -1.4966 H         1 <0>         0.0000
     36 H14        -1.9666    3.7169   -0.3126 H         1 <0>         0.0000
     37 H15         6.9448    4.7100    6.1779 H         1 <0>         0.0000
     38 H16         5.7937    5.2979    7.3803 H         1 <0>         0.0000
     39 H17         6.2895    3.5986    7.3839 H         1 <0>         0.0000
     40 H18         1.6268    2.1605    2.8618 H         1 <0>         0.0000
@<TRIPOS>BOND
     1    1   10 1
     2    1   17 3
     3    2    4 ar
     4    2    6 ar
     5    2   23 1
     6    3    5 ar
     7    3    6 ar
     8    3   24 1
     9    4    7 ar
    10    4   25 1
    11    5    7 ar
    12    5   26 1
    13    6   16 1
    14    7   22 1
    15    8   10 1
    16    8   18 2
    17    8   21 1
    18    9   11 1
    19    9   19 2
    20    9   21 1
    21   10   20 2
    22   11   12 1
    23   11   27 1
    24   11   28 1
    25   12   13 1
    26   12   29 1
    27   12   30 1
    28   13   14 1
    29   13   31 1
    30   13   32 1
    31   14   15 1
    32   14   33 1
    33   14   34 1
    34   15   21 1
    35   15   35 1
    36   15   36 1
    37   16   37 1
    38   16   38 1
    39   16   39 1
    40   18   19 1
    41   20   22 1
    42   22   40 1
