@<TRIPOS>MOLECULE
*****
   27    29     0     0     0
SMALL
NO_CHARGES

@<TRIPOS>ATOM
      1 C1          0.7948    1.0744    1.5069 C.ar      1 <0>         0.0000
      2 C2          0.7427    1.6947    2.7705 C.ar      1 <0>         0.0000
      3 C3         -0.2485   -0.7259   -3.9955 C.2       1 <0>         0.0000
      4 C4         -0.5912   -1.8654   -4.7800 C.2       1 <0>         0.0000
      5 C5         -1.5516    0.3832    1.6701 C.ar      1 <0>         0.0000
      6 C6         -0.3239    0.4253    0.9760 C.ar      1 <0>         0.0000
      7 C7         -0.4687    1.6590    3.4342 C.ar      1 <0>         0.0000
      8 C8         -1.5882    1.0232    2.8915 C.ar      1 <0>         0.0000
      9 C9         -0.9646   -0.6626   -2.8256 C.2       1 <0>         0.0000
     10 C10        -1.5622   -2.6251   -4.1743 C.2       1 <0>         0.0000
     11 C11        -2.2081    2.0261    4.7923 C.3       1 <0>         0.0000
     12 N1         -0.2478   -0.2462   -0.2963 N.pl3     1 <0>         0.0000
     13 O1         -2.1803    1.1033   -1.2578 O.2       1 <0>         0.0000
     14 O2          0.1595    1.5816   -2.1519 O.2       1 <0>         0.0000
     15 O3         -0.7812    2.1636    4.6778 O.3       1 <0>         0.0000
     16 O4         -2.6402    1.1053    3.7774 O.3       1 <0>         0.0000
     17 S1         -2.0845   -1.9814   -2.6450 S.3       1 <0>         0.0000
     18 S2         -0.8475    0.6456   -1.6405 S.o2      1 <0>         0.0000
     19 Cl1        -2.2557   -4.0838   -4.7860 Cl        1 <0>         0.0000
     20 H1          1.7148    1.1140    0.9304 H         1 <0>         0.0000
     21 H2          1.6091    2.1892    3.1970 H         1 <0>         0.0000
     22 H3          0.4820    0.0263   -4.2719 H         1 <0>         0.0000
     23 H4         -0.1509   -2.1131   -5.7390 H         1 <0>         0.0000
     24 H5         -2.4139   -0.1201    1.2496 H         1 <0>         0.0000
     25 H6         -2.4545    1.6219    5.7761 H         1 <0>         0.0000
     26 H7         -2.6811    3.0028    4.6223 H         1 <0>         0.0000
     27 H8          0.7102   -0.5194   -0.5195 H         1 <0>         0.0000
@<TRIPOS>BOND
     1    1    2 ar
     2    1    6 ar
     3    1   20 1
     4    2    7 ar
     5    2   21 1
     6    3    4 1
     7    3    9 2
     8    3   22 1
     9    4   10 2
    10    4   23 1
    11    5    6 ar
    12    5    8 ar
    13    5   24 1
    14    6   12 1
    15    7    8 ar
    16    7   15 1
    17    8   16 1
    18    9   17 1
    19    9   18 1
    20   10   17 1
    21   10   19 1
    22   11   15 1
    23   11   16 1
    24   11   25 1
    25   11   26 1
    26   12   18 1
    27   12   27 1
    28   13   18 2
    29   14   18 2
