@<TRIPOS>MOLECULE
*****
   41    42     0     0     0
SMALL
NO_CHARGES

@<TRIPOS>ATOM
      1 C1          0.9075   -1.2996   -1.5232 C.2       1 <0>         0.0000
      2 C2         -1.5073    0.3893    2.4035 C.3       1 <0>         0.0000
      3 C3         -1.6047   -1.1578    2.3255 C.3       1 <0>         0.0000
      4 C4         -0.6108    0.8033    1.2218 C.3       1 <0>         0.0000
      5 C5         -0.7780   -1.5749    1.0894 C.3       1 <0>         0.0000
      6 C6         -0.9854    1.1642   -2.3174 C.3       1 <0>         0.0000
      7 C7          0.3443    1.0281   -1.5602 C.3       1 <0>         0.0000
      8 C8         -2.0800   -0.2041   -0.6236 C.3       1 <0>         0.0000
      9 C9         -0.7565   -0.3320    0.1741 C.3       1 <0>         0.0000
     10 C10         2.6760   -3.7367   -1.4152 C.3       1 <0>         0.0000
     11 C11         0.5293   -4.8220   -0.6765 C.3       1 <0>         0.0000
     12 C12         0.7126   -3.9317   -3.0227 C.3       1 <0>         0.0000
     13 C13         1.1525   -3.7442   -1.5678 C.3       1 <0>         0.0000
     14 N1         -2.1737    0.9889   -1.4706 N.3       1 <0>         0.0000
     15 N2          0.3565   -0.2468   -0.8162 N.am      1 <0>         0.0000
     16 O1          1.6377   -1.1441   -2.4985 O.2       1 <0>         0.0000
     17 O2          0.5758   -2.5081   -1.0127 O.3       1 <0>         0.0000
     18 H1         -2.4990    0.8442    2.3132 H         1 <0>         0.0000
     19 H2         -1.0920    0.7338    3.3547 H         1 <0>         0.0000
     20 H3         -1.2223   -1.6404    3.2294 H         1 <0>         0.0000
     21 H4         -2.6468   -1.4750    2.2206 H         1 <0>         0.0000
     22 H5         -0.8745    1.7934    0.8417 H         1 <0>         0.0000
     23 H6          0.4409    0.8454    1.5253 H         1 <0>         0.0000
     24 H7          0.2480   -1.8171    1.3784 H         1 <0>         0.0000
     25 H8         -1.1873   -2.4537    0.5925 H         1 <0>         0.0000
     26 H9         -1.0478    2.1404   -2.8107 H         1 <0>         0.0000
     27 H10        -1.0139    0.3997   -3.1035 H         1 <0>         0.0000
     28 H11         1.1872    1.0301   -2.2492 H         1 <0>         0.0000
     29 H12         0.4810    1.8510   -0.8540 H         1 <0>         0.0000
     30 H13        -2.1671   -1.0885   -1.2673 H         1 <0>         0.0000
     31 H14        -2.9406   -0.2119    0.0531 H         1 <0>         0.0000
     32 H15         3.1336   -2.9792   -2.0515 H         1 <0>         0.0000
     33 H16         2.9512   -3.5402   -0.3738 H         1 <0>         0.0000
     34 H17         3.0734   -4.7188   -1.6922 H         1 <0>         0.0000
     35 H18        -0.5619   -4.8035   -0.7543 H         1 <0>         0.0000
     36 H19         0.8041   -4.6633    0.3704 H         1 <0>         0.0000
     37 H20         0.8813   -5.8117   -0.9826 H         1 <0>         0.0000
     38 H21        -0.3777   -3.8654   -3.0995 H         1 <0>         0.0000
     39 H22         1.1596   -3.1785   -3.6711 H         1 <0>         0.0000
     40 H23         1.0175   -4.9250   -3.3690 H         1 <0>         0.0000
     41 H24        -2.2916    1.8108   -0.8817 H         1 <0>         0.0000
@<TRIPOS>BOND
     1    1   15 am
     2    1   16 2
     3    1   17 1
     4    2    3 1
     5    2    4 1
     6    2   18 1
     7    2   19 1
     8    3    5 1
     9    3   20 1
    10    3   21 1
    11    4    9 1
    12    4   22 1
    13    4   23 1
    14    5    9 1
    15    5   24 1
    16    5   25 1
    17    6    7 1
    18    6   14 1
    19    6   26 1
    20    6   27 1
    21    7   15 1
    22    7   28 1
    23    7   29 1
    24    8    9 1
    25    8   14 1
    26    8   30 1
    27    8   31 1
    28    9   15 1
    29   10   13 1
    30   10   32 1
    31   10   33 1
    32   10   34 1
    33   11   13 1
    34   11   35 1
    35   11   36 1
    36   11   37 1
    37   12   13 1
    38   12   38 1
    39   12   39 1
    40   12   40 1
    41   13   17 1
    42   14   41 1
