@<TRIPOS>MOLECULE
*****
   27    29     0     0     0
SMALL
NO_CHARGES

@<TRIPOS>ATOM
      1 C1          0.6795    1.4609    1.6788 C.ar      1 <0>         0.0000
      2 C2          0.3921    2.1713    2.8583 C.ar      1 <0>         0.0000
      3 C3          0.1034   -1.1005   -3.6537 C.2       1 <0>         0.0000
      4 C4          1.1127   -1.6952   -4.4657 C.2       1 <0>         0.0000
      5 C5         -1.4059    0.1845    1.8620 C.ar      1 <0>         0.0000
      6 C6         -0.1998    0.4906    1.1928 C.ar      1 <0>         0.0000
      7 C7         -0.7838    1.8537    3.5132 C.ar      1 <0>         0.0000
      8 C8         -1.6580    0.8795    3.0283 C.ar      1 <0>         0.0000
      9 C9          0.6300   -0.3474   -2.6335 C.2       1 <0>         0.0000
     10 C10         2.3733   -1.3657   -4.0308 C.2       1 <0>         0.0000
     11 C11        -2.6063    1.8419    4.8106 C.3       1 <0>         0.0000
     12 N1          0.1495   -0.2015   -0.0215 N.pl3     1 <0>         0.0000
     13 O1         -1.7345    0.3253   -1.7904 O.2       1 <0>         0.0000
     14 O2          0.1835    1.9528   -1.3781 O.2       1 <0>         0.0000
     15 O3         -1.2716    2.3628    4.6975 O.3       1 <0>         0.0000
     16 O4         -2.7260    0.7446    3.8886 O.3       1 <0>         0.0000
     17 S1          2.3696   -0.3300   -2.6332 S.3       1 <0>         0.0000
     18 S2         -0.3256    0.5880   -1.4751 S.o2      1 <0>         0.0000
     19 Cl1         3.8673   -1.8817   -4.7271 Cl        1 <0>         0.0000
     20 H1          1.5860    1.6690    1.1220 H         1 <0>         0.0000
     21 H2          1.0674    2.9285    3.2428 H         1 <0>         0.0000
     22 H3         -0.9649   -1.2064   -3.8069 H         1 <0>         0.0000
     23 H4          0.9240   -2.3297   -5.3239 H         1 <0>         0.0000
     24 H5         -2.1058   -0.5472    1.4705 H         1 <0>         0.0000
     25 H6         -2.7681    1.4789    5.8273 H         1 <0>         0.0000
     26 H7         -3.3265    2.6247    4.5371 H         1 <0>         0.0000
     27 H8         -0.2427   -1.1439   -0.0489 H         1 <0>         0.0000
@<TRIPOS>BOND
     1    1    2 ar
     2    1    6 ar
     3    1   20 1
     4    2    7 ar
     5    2   21 1
     6    3    4 1
     7    3    9 2
     8    3   22 1
     9    4   10 2
    10    4   23 1
    11    5    6 ar
    12    5    8 ar
    13    5   24 1
    14    6   12 1
    15    7    8 ar
    16    7   15 1
    17    8   16 1
    18    9   17 1
    19    9   18 1
    20   10   17 1
    21   10   19 1
    22   11   15 1
    23   11   16 1
    24   11   25 1
    25   11   26 1
    26   12   18 1
    27   12   27 1
    28   13   18 2
    29   14   18 2
