@<TRIPOS>MOLECULE
*****
   19    19     0     0     0
SMALL
NO_CHARGES

@<TRIPOS>ATOM
      1 C1          5.7729    0.5953    0.7479 C.1       1 <0>         0.0000
      2 C2          3.8219    0.6748   -0.7452 C.1       1 <0>         0.0000
      3 C3          1.8851   -1.0363   -0.1124 C.ar      1 <0>         0.0000
      4 C4          2.8783   -1.6520    2.0022 C.ar      1 <0>         0.0000
      5 C5          0.8066   -0.4630    0.5610 C.ar      1 <0>         0.0000
      6 C6          1.7997   -1.0786    2.6757 C.ar      1 <0>         0.0000
      7 C7          2.9210   -1.6309    0.6081 C.ar      1 <0>         0.0000
      8 C8          0.7638   -0.4841    1.9551 C.ar      1 <0>         0.0000
      9 C9          4.5325   -0.0506    0.3110 C.3       1 <0>         0.0000
     10 N1          6.7539    1.1078    1.0972 N.1       1 <0>         0.0000
     11 N2          3.2563    1.2501   -1.5794 N.1       1 <0>         0.0000
     12 N3          4.0022   -2.2068   -0.0662 N.2       1 <0>         0.0000
     13 N4          4.9013   -1.3539   -0.2403 N.2       1 <0>         0.0000
     14 I1         -0.8430    0.3697    2.9576 I         1 <0>         0.0000
     15 H1          1.9092   -1.0173   -1.1989 H         1 <0>         0.0000
     16 H2          3.6810   -2.1139    2.5711 H         1 <0>         0.0000
     17 H3          0.0107   -0.0042   -0.0202 H         1 <0>         0.0000
     18 H4          1.7862   -1.1066    3.7623 H         1 <0>         0.0000
     19 H5          3.8702   -0.2075    1.1683 H         1 <0>         0.0000
@<TRIPOS>BOND
     1    1    9 1
     2    1   10 3
     3    2    9 1
     4    2   11 3
     5    3    5 ar
     6    3    7 ar
     7    3   15 1
     8    4    6 ar
     9    4    7 ar
    10    4   16 1
    11    5    8 ar
    12    5   17 1
    13    6    8 ar
    14    6   18 1
    15    7   12 1
    16    8   14 1
    17    9   13 1
    18    9   19 1
    19   12   13 2
