@<TRIPOS>MOLECULE
*****
   21    21     0     0     0
SMALL
NO_CHARGES

@<TRIPOS>ATOM
      1 C1          3.7973   -2.5821   -2.2610 C.2       1 <0>         0.0000
      2 C2          4.5698   -1.5042   -2.6272 C.2       1 <0>         0.0000
      3 C3          2.7022   -0.8303   -1.6284 C.2       1 <0>         0.0000
      4 C4          2.0683    0.3932    0.4636 C.3       1 <0>         0.0000
      5 C5          0.2779   -0.5144   -1.0885 C.3       1 <0>         0.0000
      6 C6          4.2641    0.9988   -2.4307 C.3       1 <0>         0.0000
      7 C7          1.6876    0.0873   -1.0004 C.3       1 <0>         0.0000
      8 N1          2.6420   -2.1536   -1.6414 N.2       1 <0>         0.0000
      9 N2          3.8654   -0.3834   -2.2143 N.pl3     1 <0>         0.0000
     10 H1          4.0054   -3.6342   -2.4080 H         1 <0>         0.0000
     11 H2          5.5227   -1.4248   -3.1317 H         1 <0>         0.0000
     12 H3          2.0637   -0.5296    1.0522 H         1 <0>         0.0000
     13 H4          1.3537    1.0930    0.9108 H         1 <0>         0.0000
     14 H5          3.0683    0.8337    0.5409 H         1 <0>         0.0000
     15 H6          0.2398   -1.4738   -0.5665 H         1 <0>         0.0000
     16 H7         -0.0111   -0.6917   -2.1286 H         1 <0>         0.0000
     17 H8         -0.4518    0.1642   -0.6339 H         1 <0>         0.0000
     18 H9          3.6348    1.4793   -3.1873 H         1 <0>         0.0000
     19 H10         4.1996    1.5714   -1.5020 H         1 <0>         0.0000
     20 H11         5.2992    1.0204   -2.7752 H         1 <0>         0.0000
     21 H12         1.6910    1.0340   -1.5564 H         1 <0>         0.0000
@<TRIPOS>BOND
     1    1    2 2
     2    1    8 1
     3    1   10 1
     4    2    9 1
     5    2   11 1
     6    3    7 1
     7    3    8 2
     8    3    9 1
     9    4    7 1
    10    4   12 1
    11    4   13 1
    12    4   14 1
    13    5    7 1
    14    5   15 1
    15    5   16 1
    16    5   17 1
    17    6    9 1
    18    6   18 1
    19    6   19 1
    20    6   20 1
    21    7   21 1
