@<TRIPOS>MOLECULE
*****
   52    54     0     0     0
SMALL
NO_CHARGES

@<TRIPOS>ATOM
      1 C1         -2.9747   -0.9563   -1.2663 C.2       1 <0>         0.0000
      2 C2         -1.9552    0.0143   -1.0325 C.2       1 <0>         0.0000
      3 C3         -0.9006   -0.5079   -0.3150 C.2       1 <0>         0.0000
      4 C4         -4.2205   -0.7876   -1.9742 C.2       1 <0>         0.0000
      5 C5         -2.6523   -2.1699   -0.7178 C.2       1 <0>         0.0000
      6 C6         -4.6781   -3.2366   -1.4491 C.2       1 <0>         0.0000
      7 C7          1.8402    1.5778   -1.3497 C.2       1 <0>         0.0000
      8 C8          2.7327   -0.1060   -2.7371 C.3       1 <0>         0.0000
      9 C9          1.8545   -0.7607   -1.6814 C.3       1 <0>         0.0000
     10 C10        -2.0047    1.4235   -1.4976 C.3       1 <0>         0.0000
     11 C11        -7.5922   -2.3669   -4.8049 C.3       1 <0>         0.0000
     12 C12        -5.1361   -1.9068   -5.0140 C.3       1 <0>         0.0000
     13 C13         0.3438    0.1580    0.1309 C.3       1 <0>         0.0000
     14 C14        -1.9508   -5.2659   -1.0105 C.3       1 <0>         0.0000
     15 C15        -2.9944   -4.5651   -0.1463 C.3       1 <0>         0.0000
     16 C16        -6.2706   -1.8476   -2.7366 C.3       1 <0>         0.0000
     17 C17        -6.2312   -2.4891   -4.1251 C.3       1 <0>         0.0000
     18 C18        -1.4892   -6.5922   -0.4399 C.3       1 <0>         0.0000
     19 N1         -5.0011   -1.9672   -2.0254 N.am      1 <0>         0.0000
     20 N2         -3.4360   -3.3180   -0.7700 N.am      1 <0>         0.0000
     21 N3          2.7281    1.2949   -2.4005 N.am      1 <0>         0.0000
     22 N4          1.2906    0.3510   -0.9438 N.am      1 <0>         0.0000
     23 O1         -4.5488    0.2861   -2.4728 O.2       1 <0>         0.0000
     24 O2         -5.4396   -4.2070   -1.5375 O.2       1 <0>         0.0000
     25 O3          1.6058    2.6872   -0.8890 O.2       1 <0>         0.0000
     26 F1         -5.9757   -3.8222   -3.9687 F         1 <0>         0.0000
     27 F2         -0.5577   -7.1686   -1.2288 F         1 <0>         0.0000
     28 F3         -0.9357   -6.4114    0.7804 F         1 <0>         0.0000
     29 F4         -2.5116   -7.4607   -0.2970 F         1 <0>         0.0000
     30 S1         -1.1477   -2.1575    0.0701 S.3       1 <0>         0.0000
     31 H1          3.7617   -0.4749   -2.7157 H         1 <0>         0.0000
     32 H2          2.3198   -0.2170   -3.7437 H         1 <0>         0.0000
     33 H3          1.0481   -1.3524   -2.1244 H         1 <0>         0.0000
     34 H4          2.4385   -1.3782   -0.9918 H         1 <0>         0.0000
     35 H5         -2.4791    2.0656   -0.7420 H         1 <0>         0.0000
     36 H6         -0.9982    1.8189   -1.7000 H         1 <0>         0.0000
     37 H7         -2.5725    1.5208   -2.4351 H         1 <0>         0.0000
     38 H8         -8.3801   -2.7843   -4.1686 H         1 <0>         0.0000
     39 H9         -7.6095   -2.9371   -5.7399 H         1 <0>         0.0000
     40 H10        -7.8404   -1.3242   -5.0280 H         1 <0>         0.0000
     41 H11        -4.1588   -1.9941   -4.5267 H         1 <0>         0.0000
     42 H12        -5.2975   -0.8384   -5.1904 H         1 <0>         0.0000
     43 H13        -5.0875   -2.4183   -5.9805 H         1 <0>         0.0000
     44 H14         0.1412    1.1524    0.5634 H         1 <0>         0.0000
     45 H15         0.8639   -0.4180    0.9146 H         1 <0>         0.0000
     46 H16        -2.3825   -5.4480   -2.0016 H         1 <0>         0.0000
     47 H17        -1.0814   -4.6134   -1.1542 H         1 <0>         0.0000
     48 H18        -2.5970   -4.3570    0.8525 H         1 <0>         0.0000
     49 H19        -3.8632   -5.2202   -0.0232 H         1 <0>         0.0000
     50 H20        -7.0195   -2.3424   -2.1092 H         1 <0>         0.0000
     51 H21        -6.5172   -0.7824   -2.7948 H         1 <0>         0.0000
     52 H22         3.2638    2.0033   -2.8922 H         1 <0>         0.0000
@<TRIPOS>BOND
     1    1    2 1
     2    1    5 2
     3    1    4 1
     4    2    3 2
     5    2   10 1
     6    3   13 1
     7    3   30 1
     8    4   19 am
     9    4   23 2
    10    5   20 1
    11    5   30 1
    12    6   20 am
    13    6   19 am
    14    6   24 2
    15    7   21 am
    16    7   22 am
    17    7   25 2
    18    8    9 1
    19    8   21 1
    20    8   31 1
    21    8   32 1
    22    9   22 1
    23    9   33 1
    24    9   34 1
    25   10   35 1
    26   10   36 1
    27   10   37 1
    28   11   17 1
    29   11   38 1
    30   11   39 1
    31   11   40 1
    32   12   17 1
    33   12   41 1
    34   12   42 1
    35   12   43 1
    36   13   22 1
    37   13   44 1
    38   13   45 1
    39   14   15 1
    40   14   18 1
    41   14   46 1
    42   14   47 1
    43   15   20 1
    44   15   48 1
    45   15   49 1
    46   16   17 1
    47   16   19 1
    48   16   50 1
    49   16   51 1
    50   17   26 1
    51   18   27 1
    52   18   28 1
    53   18   29 1
    54   21   52 1
