@<TRIPOS>MOLECULE
*****
   38    40     0     0     0
SMALL
NO_CHARGES

@<TRIPOS>ATOM
      1 C1          1.7539    2.5966    1.2664 C.ar      1 <0>         0.0000
      2 C2          1.0317    2.1110    2.3640 C.ar      1 <0>         0.0000
      3 C3          1.6416    1.9528    0.0346 C.ar      1 <0>         0.0000
      4 C4          0.1955    1.0087    2.2083 C.ar      1 <0>         0.0000
      5 C5          0.8256    0.8260   -0.1459 C.ar      1 <0>         0.0000
      6 C6          0.0855    0.3760    0.9617 C.ar      1 <0>         0.0000
      7 C7          5.3966   -0.9871   -0.6349 C.3       1 <0>         0.0000
      8 C8          5.0696    0.4668   -0.9165 C.3       1 <0>         0.0000
      9 C9          0.0089   -1.2306   -1.3152 C.3       1 <0>         0.0000
     10 C10         0.7178    0.1183   -1.4876 C.3       1 <0>         0.0000
     11 C11         4.3979   -0.6317   -1.7094 C.3       1 <0>         0.0000
     12 C12        -1.2130   -1.1385   -0.3956 C.3       1 <0>         0.0000
     13 C13        -2.2752   -0.1606   -0.9150 C.3       1 <0>         0.0000
     14 C14        -1.8198   -2.5183   -0.1539 C.3       1 <0>         0.0000
     15 C15         2.0747   -0.0596   -2.1955 C.3       1 <0>         0.0000
     16 N1          3.0080   -0.8836   -1.4249 N.3       1 <0>         0.0000
     17 O1         -0.7707   -0.6972    0.9150 O.3       1 <0>         0.0000
     18 H1          2.3984    3.4653    1.3710 H         1 <0>         0.0000
     19 H2          1.1110    2.5959    3.3337 H         1 <0>         0.0000
     20 H3          2.2102    2.3347   -0.8089 H         1 <0>         0.0000
     21 H4         -0.3903    0.6200    3.0366 H         1 <0>         0.0000
     22 H5          6.3660   -1.3700   -0.9405 H         1 <0>         0.0000
     23 H6          4.9950   -1.4132    0.2791 H         1 <0>         0.0000
     24 H7          4.4495    0.9797   -0.1882 H         1 <0>         0.0000
     25 H8          5.8175    1.0787   -1.4131 H         1 <0>         0.0000
     26 H9         -0.2917   -1.6275   -2.2916 H         1 <0>         0.0000
     27 H10         0.6972   -1.9505   -0.8599 H         1 <0>         0.0000
     28 H11         0.1093    0.7416   -2.1586 H         1 <0>         0.0000
     29 H12         4.7365   -0.7530   -2.7440 H         1 <0>         0.0000
     30 H13        -3.1399   -0.1585   -0.2450 H         1 <0>         0.0000
     31 H14        -2.6111   -0.4554   -1.9149 H         1 <0>         0.0000
     32 H15        -1.8900    0.8606   -0.9694 H         1 <0>         0.0000
     33 H16        -2.6330   -2.4530    0.5750 H         1 <0>         0.0000
     34 H17        -1.0638   -3.2065    0.2356 H         1 <0>         0.0000
     35 H18        -2.2210   -2.9282   -1.0861 H         1 <0>         0.0000
     36 H19         2.5425    0.9172   -2.3390 H         1 <0>         0.0000
     37 H20         1.8882   -0.4590   -3.2080 H         1 <0>         0.0000
     38 H21         2.8069   -1.8713   -1.5556 H         1 <0>         0.0000
@<TRIPOS>BOND
     1    1    2 ar
     2    1    3 ar
     3    1   18 1
     4    2    4 ar
     5    2   19 1
     6    3    5 ar
     7    3   20 1
     8    4    6 ar
     9    4   21 1
    10    5    6 ar
    11    5   10 1
    12    6   17 1
    13    7    8 1
    14    7   11 1
    15    7   22 1
    16    7   23 1
    17    8   11 1
    18    8   24 1
    19    8   25 1
    20    9   10 1
    21    9   12 1
    22    9   26 1
    23    9   27 1
    24   10   15 1
    25   10   28 1
    26   11   16 1
    27   11   29 1
    28   12   13 1
    29   12   14 1
    30   12   17 1
    31   13   30 1
    32   13   31 1
    33   13   32 1
    34   14   33 1
    35   14   34 1
    36   14   35 1
    37   15   16 1
    38   15   36 1
    39   15   37 1
    40   16   38 1
