@<TRIPOS>MOLECULE
*****
   53    56     0     0     0
SMALL
NO_CHARGES

@<TRIPOS>ATOM
      1 C1         -1.9492    0.9255   -0.2235 C.ar      1 <0>         0.0000
      2 C2         -2.9190    0.0247    0.2187 C.ar      1 <0>         0.0000
      3 C3          1.3787   -5.0428   -0.4372 C.ar      1 <0>         0.0000
      4 C4          0.4574   -3.3383   -1.9090 C.ar      1 <0>         0.0000
      5 C5          0.0857   -5.4242   -0.0706 C.ar      1 <0>         0.0000
      6 C6         -0.8334   -3.7069   -1.5366 C.ar      1 <0>         0.0000
      7 C7         -1.2002   -1.5469    1.0000 C.ar      1 <0>         0.0000
      8 C8         -0.2154   -0.6444    0.5601 C.ar      1 <0>         0.0000
      9 C9          1.2222   -0.6632    0.5721 C.2       1 <0>         0.0000
     10 C10        -0.6056    0.5811   -0.0517 C.ar      1 <0>         0.0000
     11 C11        -2.5236   -1.1815    0.8179 C.ar      1 <0>         0.0000
     12 C12         1.5527   -3.9993   -1.3463 C.ar      1 <0>         0.0000
     13 C13        -1.0071   -4.7470   -0.6177 C.ar      1 <0>         0.0000
     14 C14         1.6527    0.5132   -0.0034 C.2       1 <0>         0.0000
     15 C15         1.1143    3.1586    1.6636 C.2       1 <0>         0.0000
     16 C16         2.1683   -1.7372    1.0218 C.3       1 <0>         0.0000
     17 C17         3.0851    0.8821   -0.2539 C.3       1 <0>         0.0000
     18 C18         4.0262   -0.1668    0.3813 C.3       1 <0>         0.0000
     19 C19         3.4967   -1.6056    0.2483 C.3       1 <0>         0.0000
     20 C20         1.1944    1.8119    3.6031 C.3       1 <0>         0.0000
     21 C21         0.2477    3.5769    0.4945 C.3       1 <0>         0.0000
     22 C22         0.5857    2.6905   -0.7267 C.3       1 <0>         0.0000
     23 N1          0.5515    1.2706   -0.4123 N.pl3     1 <0>         0.0000
     24 N2          3.3919   -1.9019   -1.1947 N.pl3     1 <0>         0.0000
     25 O1          2.3077    3.3885    1.7540 O.2       1 <0>         0.0000
     26 O2          4.1503   -4.2990   -1.0209 O.2       1 <0>         0.0000
     27 O3          3.2622   -3.3288   -3.2305 O.2       1 <0>         0.0000
     28 O4          0.4171    2.4303    2.5561 O.3       1 <0>         0.0000
     29 F1         -3.5032   -2.0299    1.2392 F         1 <0>         0.0000
     30 S1          3.2165   -3.4608   -1.7744 S.o2      1 <0>         0.0000
     31 Cl1        -2.6259   -5.1948   -0.1327 Cl        1 <0>         0.0000
     32 H1         -2.2472    1.8604   -0.6896 H         1 <0>         0.0000
     33 H2         -3.9777    0.2387    0.1122 H         1 <0>         0.0000
     34 H3          2.2472   -5.5420   -0.0196 H         1 <0>         0.0000
     35 H4          0.6039   -2.5407   -2.6311 H         1 <0>         0.0000
     36 H5         -0.0724   -6.2340    0.6345 H         1 <0>         0.0000
     37 H6         -1.6954   -3.1891   -1.9430 H         1 <0>         0.0000
     38 H7         -0.9543   -2.4961    1.4648 H         1 <0>         0.0000
     39 H8          2.3874   -1.6528    2.0951 H         1 <0>         0.0000
     40 H9          1.7309   -2.7275    0.8805 H         1 <0>         0.0000
     41 H10         3.2700    0.9524   -1.3354 H         1 <0>         0.0000
     42 H11         3.3194    1.8676    0.1599 H         1 <0>         0.0000
     43 H12         5.0165   -0.0955   -0.0756 H         1 <0>         0.0000
     44 H13         4.1374    0.0508    1.4489 H         1 <0>         0.0000
     45 H14         4.2348   -2.3032    0.6492 H         1 <0>         0.0000
     46 H15         0.4734    1.2797    4.2221 H         1 <0>         0.0000
     47 H16         1.7268    2.5680    4.1840 H         1 <0>         0.0000
     48 H17         1.9103    1.1135    3.1627 H         1 <0>         0.0000
     49 H18         0.4621    4.6203    0.2480 H         1 <0>         0.0000
     50 H19        -0.8057    3.4768    0.7597 H         1 <0>         0.0000
     51 H20        -0.1192    2.9007   -1.5368 H         1 <0>         0.0000
     52 H21         1.5840    2.9339   -1.0928 H         1 <0>         0.0000
     53 H22         2.7910   -1.2678   -1.7167 H         1 <0>         0.0000
@<TRIPOS>BOND
     1    1    2 ar
     2    1   10 ar
     3    1   32 1
     4    2   11 ar
     5    2   33 1
     6    3    5 ar
     7    3   12 ar
     8    3   34 1
     9    4    6 ar
    10    4   12 ar
    11    4   35 1
    12    5   13 ar
    13    5   36 1
    14    6   13 ar
    15    6   37 1
    16    7    8 ar
    17    7   11 ar
    18    7   38 1
    19    8    9 1
    20    8   10 ar
    21    9   14 2
    22    9   16 1
    23   10   23 1
    24   11   29 1
    25   12   30 1
    26   13   31 1
    27   14   17 1
    28   14   23 1
    29   15   21 1
    30   15   25 2
    31   15   28 1
    32   16   19 1
    33   16   39 1
    34   16   40 1
    35   17   18 1
    36   17   41 1
    37   17   42 1
    38   18   19 1
    39   18   43 1
    40   18   44 1
    41   19   24 1
    42   19   45 1
    43   20   28 1
    44   20   46 1
    45   20   47 1
    46   20   48 1
    47   21   22 1
    48   21   49 1
    49   21   50 1
    50   22   23 1
    51   22   51 1
    52   22   52 1
    53   24   30 1
    54   24   53 1
    55   26   30 2
    56   27   30 2
