@<TRIPOS>MOLECULE
*****
   53    55     0     0     0
SMALL
NO_CHARGES

@<TRIPOS>ATOM
      1 C1          3.4867   -1.5687   12.5554 C.ar      1 <0>         0.0000
      2 C2          2.2649   -0.8447   12.5236 C.ar      1 <0>         0.0000
      3 C3          4.1444   -1.8725   11.3821 C.ar      1 <0>         0.0000
      4 C4          4.2317   -1.7436    8.8874 C.ar      1 <0>         0.0000
      5 C5          2.3053   -0.1128    1.7796 C.ar      1 <0>         0.0000
      6 C6          0.3553    0.9597    2.6886 C.ar      1 <0>         0.0000
      7 C7          1.7207   -0.4367   11.3237 C.ar      1 <0>         0.0000
      8 C8          2.7280   -0.4416    3.0628 C.ar      1 <0>         0.0000
      9 C9          0.7642    0.6348    3.9885 C.ar      1 <0>         0.0000
     10 C10         3.6459   -1.3137    7.7179 C.ar      1 <0>         0.0000
     11 C11         3.6077   -1.4651   10.1306 C.ar      1 <0>         0.0000
     12 C12         1.1081    0.5943    1.5718 C.ar      1 <0>         0.0000
     13 C13         2.3762   -0.7356   10.0981 C.ar      1 <0>         0.0000
     14 C14         1.9580   -0.0711    4.1767 C.ar      1 <0>         0.0000
     15 C15         2.4213   -0.5970    7.7952 C.ar      1 <0>         0.0000
     16 C16        -0.8907   -1.1206    0.1137 C.2       1 <0>         0.0000
     17 C17        -2.2111   -1.0839   -0.1349 C.2       1 <0>         0.0000
     18 C18         1.6995    1.6584   -0.5908 C.2       1 <0>         0.0000
     19 C19        -3.1800   -1.8895    0.6985 C.3       1 <0>         0.0000
     20 C20        -2.8555   -0.2623   -1.2258 C.3       1 <0>         0.0000
     21 C21         2.5670    3.7937   -1.1131 C.3       1 <0>         0.0000
     22 C22         1.7114   -0.0918    6.5578 C.3       1 <0>         0.0000
     23 C23         0.1949   -0.3660   -0.6075 C.3       1 <0>         0.0000
     24 C24         0.6151    0.9090    0.1666 C.3       1 <0>         0.0000
     25 N1          1.8079   -0.3161    8.9305 N.ar      1 <0>         0.0000
     26 O1          2.6198    1.1404   -1.1972 O.2       1 <0>         0.0000
     27 O2          2.4576   -0.4437    5.3983 O.3       1 <0>         0.0000
     28 O3          1.5360    2.9983   -0.4909 O.3       1 <0>         0.0000
     29 H1          3.9003   -1.8820   13.5103 H         1 <0>         0.0000
     30 H2          1.7574   -0.6122   13.4563 H         1 <0>         0.0000
     31 H3          5.0803   -2.4266   11.4005 H         1 <0>         0.0000
     32 H4          5.1692   -2.2955    8.8691 H         1 <0>         0.0000
     33 H5          2.9143   -0.4003    0.9268 H         1 <0>         0.0000
     34 H6         -0.5771    1.5016    2.5511 H         1 <0>         0.0000
     35 H7          0.7877    0.1175   11.2794 H         1 <0>         0.0000
     36 H8          3.6541   -0.9851    3.2267 H         1 <0>         0.0000
     37 H9          0.1481    0.9352    4.8282 H         1 <0>         0.0000
     38 H10         4.0909   -1.5065    6.7491 H         1 <0>         0.0000
     39 H11        -0.5520   -1.7325    0.9489 H         1 <0>         0.0000
     40 H12        -3.9181   -1.2365    1.1828 H         1 <0>         0.0000
     41 H13        -2.6683   -2.4620    1.4770 H         1 <0>         0.0000
     42 H14        -3.7464   -2.5919    0.0729 H         1 <0>         0.0000
     43 H15        -3.4087   -0.9073   -1.9205 H         1 <0>         0.0000
     44 H16        -2.1403    0.3231   -1.8065 H         1 <0>         0.0000
     45 H17        -3.5882    0.4336   -0.7969 H         1 <0>         0.0000
     46 H18         2.2818    4.8304   -0.9347 H         1 <0>         0.0000
     47 H19         2.6159    3.5851   -2.1844 H         1 <0>         0.0000
     48 H20         3.5374    3.5772   -0.6602 H         1 <0>         0.0000
     49 H21         0.7067   -0.5318    6.5187 H         1 <0>         0.0000
     50 H22         1.6001    0.9977    6.6296 H         1 <0>         0.0000
     51 H23         1.0771   -1.0021   -0.7275 H         1 <0>         0.0000
     52 H24        -0.1155   -0.0775   -1.6155 H         1 <0>         0.0000
     53 H25        -0.2499    1.5716    0.2504 H         1 <0>         0.0000
@<TRIPOS>BOND
     1    1    2 ar
     2    1    3 ar
     3    1   29 1
     4    2    7 ar
     5    2   30 1
     6    3   11 ar
     7    3   31 1
     8    4   10 ar
     9    4   11 ar
    10    4   32 1
    11    5    8 ar
    12    5   12 ar
    13    5   33 1
    14    6    9 ar
    15    6   12 ar
    16    6   34 1
    17    7   13 ar
    18    7   35 1
    19    8   14 ar
    20    8   36 1
    21    9   14 ar
    22    9   37 1
    23   10   15 ar
    24   10   38 1
    25   11   13 ar
    26   12   24 1
    27   13   25 ar
    28   14   27 1
    29   15   22 1
    30   15   25 ar
    31   16   17 2
    32   16   23 1
    33   16   39 1
    34   17   19 1
    35   17   20 1
    36   18   24 1
    37   18   26 2
    38   18   28 1
    39   19   40 1
    40   19   41 1
    41   19   42 1
    42   20   43 1
    43   20   44 1
    44   20   45 1
    45   21   28 1
    46   21   46 1
    47   21   47 1
    48   21   48 1
    49   22   27 1
    50   22   49 1
    51   22   50 1
    52   23   24 1
    53   23   51 1
    54   23   52 1
    55   24   53 1
