@<TRIPOS>MOLECULE
*****
   58    61     0     0     0
SMALL
NO_CHARGES

@<TRIPOS>ATOM
      1 C1         -0.5228  -14.6370    2.2362 C.ar      1 <0>         0.0000
      2 C2          1.5784  -14.2942    1.0862 C.ar      1 <0>         0.0000
      3 C3         -1.6428   -5.2007   -5.1376 C.ar      1 <0>         0.0000
      4 C4         -1.0760  -13.5675    1.5482 C.ar      1 <0>         0.0000
      5 C5          1.0289  -13.2153    0.3888 C.ar      1 <0>         0.0000
      6 C6         -1.9221   -6.2063   -4.2231 C.ar      1 <0>         0.0000
      7 C7          1.8288   -5.7531   -6.0639 C.2       1 <0>         0.0000
      8 C8          0.3458   -7.1110   -4.3883 C.ar      1 <0>         0.0000
      9 C9          1.5304   -4.6463   -6.8227 C.2       1 <0>         0.0000
     10 C10         2.9003  -17.5710    3.3548 C.2       1 <0>         0.0000
     11 C11         0.6462   -6.0929   -5.3184 C.ar      1 <0>         0.0000
     12 C12         0.8165  -15.0162    2.0143 C.ar      1 <0>         0.0000
     13 C13        -0.3491   -5.1479   -5.6753 C.ar      1 <0>         0.0000
     14 C14        -0.3044  -12.8471    0.6189 C.ar      1 <0>         0.0000
     15 C15        -0.9370   -7.1539   -3.8472 C.ar      1 <0>         0.0000
     16 C16         1.7524  -17.8225    4.0431 C.2       1 <0>         0.0000
     17 C17         1.3748  -16.1428    2.7507 C.2       1 <0>         0.0000
     18 C18        -1.4484   -3.6153   -8.3640 C.2       1 <0>         0.0000
     19 C19         0.3559  -19.8525    4.5899 C.3       1 <0>         0.0000
     20 C20         0.4049   -2.0491   -7.7331 C.3       1 <0>         0.0000
     21 C21         1.4539  -18.8827    5.0574 C.3       1 <0>         0.0000
     22 C22        -1.1354   -9.9552   -1.4811 C.3       1 <0>         0.0000
     23 C23        -0.2040  -11.0362   -0.9515 C.3       1 <0>         0.0000
     24 C24        -0.4275   -9.0665   -2.4945 C.3       1 <0>         0.0000
     25 C25        -0.5156   -3.1622   -7.2179 C.3       1 <0>         0.0000
     26 N1          0.7876  -16.8986    3.6409 N.2       1 <0>         0.0000
     27 N2          0.2092   -4.2633   -6.6009 N.pl3     1 <0>         0.0000
     28 O1         -2.2627   -2.8623   -8.8469 O.2       1 <0>         0.0000
     29 O2          2.6776  -16.4948    2.5200 O.3       1 <0>         0.0000
     30 O3         -1.2907   -4.8779   -8.8193 O.3       1 <0>         0.0000
     31 O4         -0.9414  -11.8108   -0.0044 O.3       1 <0>         0.0000
     32 O5         -1.3637   -8.0854   -2.9317 O.3       1 <0>         0.0000
     33 H1         -1.1145  -15.1951    2.9549 H         1 <0>         0.0000
     34 H2          2.6111  -14.5756    0.9054 H         1 <0>         0.0000
     35 H3         -2.4159   -4.4922   -5.4209 H         1 <0>         0.0000
     36 H4         -2.1065  -13.2662    1.7116 H         1 <0>         0.0000
     37 H5          1.6455  -12.6778   -0.3222 H         1 <0>         0.0000
     38 H6         -2.9077   -6.2925   -3.7765 H         1 <0>         0.0000
     39 H7          2.7852   -6.2591   -6.0397 H         1 <0>         0.0000
     40 H8          1.1072   -7.8323   -4.1147 H         1 <0>         0.0000
     41 H9          2.1586   -4.0917   -7.5043 H         1 <0>         0.0000
     42 H10         3.8872  -18.0079    3.3288 H         1 <0>         0.0000
     43 H11        -0.5636  -19.3071    4.3600 H         1 <0>         0.0000
     44 H12         0.1346  -20.5917    5.3669 H         1 <0>         0.0000
     45 H13         0.6661  -20.3873    3.6860 H         1 <0>         0.0000
     46 H14         1.0353   -2.3919   -8.5582 H         1 <0>         0.0000
     47 H15        -0.2121   -1.2286   -8.1026 H         1 <0>         0.0000
     48 H16         1.0441   -1.6830   -6.9257 H         1 <0>         0.0000
     49 H17         2.3743  -19.4325    5.2822 H         1 <0>         0.0000
     50 H18         1.1370  -18.3976    5.9884 H         1 <0>         0.0000
     51 H19        -2.0079  -10.4209   -1.9492 H         1 <0>         0.0000
     52 H20        -1.4950   -9.3435   -0.6481 H         1 <0>         0.0000
     53 H21         0.1489  -11.6829   -1.7668 H         1 <0>         0.0000
     54 H22         0.6742  -10.5908   -0.4635 H         1 <0>         0.0000
     55 H23        -0.0752   -9.6563   -3.3531 H         1 <0>         0.0000
     56 H24         0.4443   -8.5743   -2.0398 H         1 <0>         0.0000
     57 H25        -1.1745   -2.7318   -6.4585 H         1 <0>         0.0000
     58 H26        -0.6281   -5.3381   -8.2696 H         1 <0>         0.0000
@<TRIPOS>BOND
     1    1    4 ar
     2    1   12 ar
     3    1   33 1
     4    2    5 ar
     5    2   12 ar
     6    2   34 1
     7    3    6 ar
     8    3   13 ar
     9    3   35 1
    10    4   14 ar
    11    4   36 1
    12    5   14 ar
    13    5   37 1
    14    6   15 ar
    15    6   38 1
    16    7    9 2
    17    7   11 1
    18    7   39 1
    19    8   11 ar
    20    8   15 ar
    21    8   40 1
    22    9   27 1
    23    9   41 1
    24   10   16 2
    25   10   29 1
    26   10   42 1
    27   11   13 ar
    28   12   17 1
    29   13   27 1
    30   14   31 1
    31   15   32 1
    32   16   21 1
    33   16   26 1
    34   17   26 2
    35   17   29 1
    36   18   25 1
    37   18   28 2
    38   18   30 1
    39   19   21 1
    40   19   43 1
    41   19   44 1
    42   19   45 1
    43   20   25 1
    44   20   46 1
    45   20   47 1
    46   20   48 1
    47   21   49 1
    48   21   50 1
    49   22   23 1
    50   22   24 1
    51   22   51 1
    52   22   52 1
    53   23   31 1
    54   23   53 1
    55   23   54 1
    56   24   32 1
    57   24   55 1
    58   24   56 1
    59   25   27 1
    60   25   57 1
    61   30   58 1
