@<TRIPOS>MOLECULE
*****
   34    35     0     0     0
SMALL
NO_CHARGES

@<TRIPOS>ATOM
      1 C1         -1.0171    0.3873   -0.5098 C.ar      1 <0>         0.0000
      2 C2         -2.2922    0.2456   -1.0567 C.ar      1 <0>         0.0000
      3 C3         -0.8112    2.6016   -1.5002 C.ar      1 <0>         0.0000
      4 C4         -0.2688    1.5606   -0.7250 C.ar      1 <0>         0.0000
      5 C5         -2.8220    1.2905   -1.8179 C.ar      1 <0>         0.0000
      6 C6         -2.0871    2.4617   -2.0440 C.ar      1 <0>         0.0000
      7 C7          1.0948    1.6533   -0.1076 C.2       1 <0>         0.0000
      8 C8         -5.2292    0.1415   -4.4100 C.2       1 <0>         0.0000
      9 C9         -2.8700    3.4238   -2.9149 C.3       1 <0>         0.0000
     10 C10        -4.3111    2.8624   -2.8474 C.3       1 <0>         0.0000
     11 C11        -4.1547    1.3512   -2.5349 C.3       1 <0>         0.0000
     12 C12         1.9096    2.9176   -0.3206 C.3       1 <0>         0.0000
     13 C13        -5.9934   -1.8975   -5.6990 C.3       1 <0>         0.0000
     14 C14        -5.0136   -0.7192   -5.6505 C.3       1 <0>         0.0000
     15 N1         -4.0975    0.5120   -3.7372 N.am      1 <0>         0.0000
     16 O1          1.5468    0.7270    0.5567 O.2       1 <0>         0.0000
     17 O2         -6.3499    0.4942   -4.0406 O.2       1 <0>         0.0000
     18 H1         -0.5745   -0.3968    0.0962 H         1 <0>         0.0000
     19 H2         -2.8676   -0.6614   -0.8859 H         1 <0>         0.0000
     20 H3         -0.2465    3.5132   -1.6747 H         1 <0>         0.0000
     21 H4         -2.8055    4.4592   -2.5668 H         1 <0>         0.0000
     22 H5         -2.4814    3.4074   -3.9411 H         1 <0>         0.0000
     23 H6         -4.8478    3.3321   -2.0168 H         1 <0>         0.0000
     24 H7         -4.8950    3.0251   -3.7545 H         1 <0>         0.0000
     25 H8         -4.9880    0.9855   -1.9299 H         1 <0>         0.0000
     26 H9          1.3810    3.7943    0.0690 H         1 <0>         0.0000
     27 H10         2.0910    3.0915   -1.3868 H         1 <0>         0.0000
     28 H11         2.8646    2.8128    0.1953 H         1 <0>         0.0000
     29 H12        -5.8143   -2.5925   -4.8720 H         1 <0>         0.0000
     30 H13        -7.0210   -1.5358   -5.6184 H         1 <0>         0.0000
     31 H14        -5.8865   -2.4497   -6.6378 H         1 <0>         0.0000
     32 H15        -5.1775   -0.0689   -6.5183 H         1 <0>         0.0000
     33 H16        -3.9775   -1.0724   -5.7085 H         1 <0>         0.0000
     34 H17        -3.1946    0.1917   -4.0610 H         1 <0>         0.0000
@<TRIPOS>BOND
     1    1    2 ar
     2    1    4 ar
     3    1   18 1
     4    2    5 ar
     5    2   19 1
     6    3    4 ar
     7    3    6 ar
     8    3   20 1
     9    4    7 1
    10    5    6 ar
    11    5   11 1
    12    6    9 1
    13    7   12 1
    14    7   16 2
    15    8   14 1
    16    8   15 am
    17    8   17 2
    18    9   10 1
    19    9   21 1
    20    9   22 1
    21   10   11 1
    22   10   23 1
    23   10   24 1
    24   11   15 1
    25   11   25 1
    26   12   26 1
    27   12   27 1
    28   12   28 1
    29   13   14 1
    30   13   29 1
    31   13   30 1
    32   13   31 1
    33   14   32 1
    34   14   33 1
    35   15   34 1
