@<TRIPOS>MOLECULE
*****
   13    12     0     0     0
SMALL
NO_CHARGES

@<TRIPOS>ATOM
      1 C1         -0.4605   -0.1638    0.9759 C.3       1 <0>         0.0000
      2 C2         -2.8139   -0.7997   -0.3601 C.3       1 <0>         0.0000
      3 N1         -4.2113   -0.6159   -0.6242 N.3       1 <0>         0.0000
      4 O1         -2.7883   -0.0534    2.1522 O.2       1 <0>         0.0000
      5 O2         -2.2378    1.6504    0.3712 O.2       1 <0>         0.0000
      6 S1         -2.1732    0.2967    0.8868 S.o2      1 <0>         0.0000
      7 H1          0.0260    0.4624    1.7254 H         1 <0>         0.0000
      8 H2         -0.4011   -1.2157    1.2596 H         1 <0>         0.0000
      9 H3         -0.0100   -0.0060   -0.0051 H         1 <0>         0.0000
     10 H4         -2.6634   -1.8283   -0.0243 H         1 <0>         0.0000
     11 H5         -2.2639   -0.6213   -1.2872 H         1 <0>         0.0000
     12 H6         -4.8397   -0.4542    0.1502 H         1 <0>         0.0000
     13 H7         -4.5921   -0.9555   -1.4962 H         1 <0>         0.0000
@<TRIPOS>BOND
     1    1    6 1
     2    1    7 1
     3    1    8 1
     4    1    9 1
     5    2    3 1
     6    2    6 1
     7    2   10 1
     8    2   11 1
     9    3   12 1
    10    3   13 1
    11    4    6 2
    12    5    6 2
