@<TRIPOS>MOLECULE
*****
   25    26     0     0     0
SMALL
NO_CHARGES

@<TRIPOS>ATOM
      1 C1         -1.6773    1.6439    2.4698 C.ar      1 <0>         0.0000
      2 C2         -0.7036    1.3640    1.5041 C.ar      1 <0>         0.0000
      3 C3         -3.8586    0.6897    3.5356 C.2       1 <0>         0.0000
      4 C4         -1.8022   -0.7245    0.9247 C.ar      1 <0>         0.0000
      5 C5         -2.7304    0.7292    2.6692 C.ar      1 <0>         0.0000
      6 C6         -2.7685   -0.4315    1.8936 C.ar      1 <0>         0.0000
      7 C7         -0.7671    0.1975    0.7446 C.ar      1 <0>         0.0000
      8 C8         -4.5471   -0.4724    3.2738 C.2       1 <0>         0.0000
      9 C9         -5.7436   -0.9518    3.8899 C.2       1 <0>         0.0000
     10 C10         1.7150   -1.0255    0.4325 C.3       1 <0>         0.0000
     11 N1         -3.8818   -1.1421    2.2822 N.pl3     1 <0>         0.0000
     12 O1         -6.3895   -0.3838    4.7975 O.2       1 <0>         0.0000
     13 O2         -0.1046   -1.0094   -1.4552 O.2       1 <0>         0.0000
     14 O3          1.0633    1.1419   -0.8603 O.2       1 <0>         0.0000
     15 O4         -6.1708   -2.1552    3.3902 O.3       1 <0>         0.0000
     16 S1          0.4659   -0.1217   -0.4531 S.o2      1 <0>         0.0000
     17 H1         -1.6160    2.5565    3.0556 H         1 <0>         0.0000
     18 H2          0.1068    2.0736    1.3546 H         1 <0>         0.0000
     19 H3         -4.1338    1.4352    4.2698 H         1 <0>         0.0000
     20 H4         -1.8585   -1.6360    0.3383 H         1 <0>         0.0000
     21 H5          2.5250   -1.2615   -0.2594 H         1 <0>         0.0000
     22 H6          2.0792   -0.3998    1.2487 H         1 <0>         0.0000
     23 H7          1.2664   -1.9404    0.8225 H         1 <0>         0.0000
     24 H8         -4.1635   -2.0302    1.8903 H         1 <0>         0.0000
     25 H9         -6.9925   -2.4928    3.8063 H         1 <0>         0.0000
@<TRIPOS>BOND
     1    1    2 ar
     2    1    5 ar
     3    1   17 1
     4    2    7 ar
     5    2   18 1
     6    3    5 1
     7    3    8 2
     8    3   19 1
     9    4    6 ar
    10    4    7 ar
    11    4   20 1
    12    5    6 ar
    13    6   11 1
    14    7   16 1
    15    8    9 1
    16    8   11 1
    17    9   12 2
    18    9   15 1
    19   10   16 1
    20   10   21 1
    21   10   22 1
    22   10   23 1
    23   11   24 1
    24   13   16 2
    25   14   16 2
    26   15   25 1
