@<TRIPOS>MOLECULE
*****
   25    26     0     0     0
SMALL
NO_CHARGES

@<TRIPOS>ATOM
      1 C1         -3.3199    1.1102   -3.8721 C.ar      1 <0>         0.0000
      2 C2         -4.5780    0.7689   -4.3873 C.ar      1 <0>         0.0000
      3 C3         -4.0812   -1.5826   -4.0464 C.ar      1 <0>         0.0000
      4 C4         -2.4314    0.1202   -3.4393 C.ar      1 <0>         0.0000
      5 C5         -2.8440   -1.2206   -3.5411 C.ar      1 <0>         0.0000
      6 C6         -4.9483   -0.5691   -4.4703 C.ar      1 <0>         0.0000
      7 C7          1.4808   -0.0967   -0.8997 C.3       1 <0>         0.0000
      8 C8          1.6820   -0.4226   -2.3801 C.3       1 <0>         0.0000
      9 C9          0.6828    1.6313   -2.2206 C.3       1 <0>         0.0000
     10 C10        -0.7211    1.6696   -2.8191 C.3       1 <0>         0.0000
     11 O1          0.6418    1.0684   -0.9169 O.3       1 <0>         0.0000
     12 O2          1.5876    0.8718   -2.9994 O.3       1 <0>         0.0000
     13 O3         -1.1931    0.3294   -2.9236 O.3       1 <0>         0.0000
     14 F1         -1.9908   -2.1866   -3.1280 F         1 <0>         0.0000
     15 Br1        -6.6662   -1.0452   -5.1735 Br        1 <0>         0.0000
     16 H1         -3.0445    2.1568   -3.8131 H         1 <0>         0.0000
     17 H2         -5.2552    1.5488   -4.7182 H         1 <0>         0.0000
     18 H3         -4.3502   -2.6318   -4.1031 H         1 <0>         0.0000
     19 H4          0.9641   -0.8880   -0.3512 H         1 <0>         0.0000
     20 H5          2.4284    0.1423   -0.4015 H         1 <0>         0.0000
     21 H6          2.6699   -0.8285   -2.6070 H         1 <0>         0.0000
     22 H7          0.9004   -1.0855   -2.7623 H         1 <0>         0.0000
     23 H8          1.0675    2.6597   -2.1746 H         1 <0>         0.0000
     24 H9         -0.6758    2.1386   -3.8102 H         1 <0>         0.0000
     25 H10        -1.3736    2.2604   -2.1634 H         1 <0>         0.0000
@<TRIPOS>BOND
     1    1    2 ar
     2    1    4 ar
     3    1   16 1
     4    2    6 ar
     5    2   17 1
     6    3    5 ar
     7    3    6 ar
     8    3   18 1
     9    4    5 ar
    10    4   13 1
    11    5   14 1
    12    6   15 1
    13    7    8 1
    14    7   11 1
    15    7   19 1
    16    7   20 1
    17    8   12 1
    18    8   21 1
    19    8   22 1
    20    9   10 1
    21    9   12 1
    22    9   11 1
    23    9   23 1
    24   10   13 1
    25   10   24 1
    26   10   25 1
