@<TRIPOS>MOLECULE
*****
   25    26     0     0     0
SMALL
NO_CHARGES

@<TRIPOS>ATOM
      1 C1         -0.6770    1.4123    1.5118 C.ar      1 <0>         0.0000
      2 C2         -1.6268    1.6758    2.4927 C.ar      1 <0>         0.0000
      3 C3         -0.7520    0.2543    0.7050 C.ar      1 <0>         0.0000
      4 C4         -4.4847   -0.4929    3.2641 C.2       1 <0>         0.0000
      5 C5         -2.6847    0.7601    2.6671 C.ar      1 <0>         0.0000
      6 C6         -3.8214    0.6801    3.5606 C.2       1 <0>         0.0000
      7 C7         -1.7709   -0.6856    0.8573 C.ar      1 <0>         0.0000
      8 C8         -2.7225   -0.4041    1.8510 C.ar      1 <0>         0.0000
      9 C9         -4.2309    1.6455    4.5855 C.2       1 <0>         0.0000
     10 C10        -1.8623   -1.9384    0.0219 C.3       1 <0>         0.0000
     11 N1         -4.8429    1.1987    5.6389 N.2       1 <0>         0.0000
     12 N2         -3.8252   -1.1490    2.2453 N.pl3     1 <0>         0.0000
     13 N3         -3.9042    2.9800    4.3790 N.pl3     1 <0>         0.0000
     14 O1         -5.2418    2.3060    6.4619 O.3       1 <0>         0.0000
     15 H1          0.1474    2.1048    1.3634 H         1 <0>         0.0000
     16 H2         -1.5470    2.5548    3.1245 H         1 <0>         0.0000
     17 H3          0.0111    0.0847   -0.0513 H         1 <0>         0.0000
     18 H4         -5.3819   -0.8962    3.7124 H         1 <0>         0.0000
     19 H5         -1.8192   -2.8408    0.6451 H         1 <0>         0.0000
     20 H6         -2.8000   -1.9764   -0.5473 H         1 <0>         0.0000
     21 H7         -1.0395   -1.9938   -0.6952 H         1 <0>         0.0000
     22 H8         -4.1271   -2.0159    1.8250 H         1 <0>         0.0000
     23 H9         -4.3940    3.6154    4.9999 H         1 <0>         0.0000
     24 H10        -3.9087    3.2699    3.4085 H         1 <0>         0.0000
     25 H11        -5.6438    1.8562    7.2203 H         1 <0>         0.0000
@<TRIPOS>BOND
     1    1    2 ar
     2    1    3 ar
     3    1   15 1
     4    2    5 ar
     5    2   16 1
     6    3    7 ar
     7    3   17 1
     8    4    6 2
     9    4   12 1
    10    4   18 1
    11    5    6 1
    12    5    8 ar
    13    6    9 1
    14    7    8 ar
    15    7   10 1
    16    8   12 1
    17    9   11 2
    18    9   13 1
    19   10   19 1
    20   10   20 1
    21   10   21 1
    22   11   14 1
    23   12   22 1
    24   13   23 1
    25   13   24 1
    26   14   25 1
