@<TRIPOS>MOLECULE
*****
   28    30     0     0     0
SMALL
NO_CHARGES

@<TRIPOS>ATOM
      1 C1          0.0953   -0.5950    5.1010 C.ar      1 <0>         0.0000
      2 C2         -0.3620    0.0092    3.9299 C.ar      1 <0>         0.0000
      3 C3          1.4652   -0.7250    5.3298 C.ar      1 <0>         0.0000
      4 C4          0.5506    0.4833    2.9875 C.ar      1 <0>         0.0000
      5 C5          6.0577   -2.1011    7.3699 C.2       1 <0>         0.0000
      6 C6          6.4633   -1.8484    8.6260 C.2       1 <0>         0.0000
      7 C7          2.3777   -0.2509    4.3874 C.ar      1 <0>         0.0000
      8 C8          1.9204    0.3533    3.2162 C.ar      1 <0>         0.0000
      9 C9          6.3843   -0.8674    5.1663 C.2       1 <0>         0.0000
     10 C10         7.0851    0.3164    5.0018 C.2       1 <0>         0.0000
     11 C11         7.2193   -0.1234    7.0519 C.2       1 <0>         0.0000
     12 C12         5.6742   -1.6969    4.1780 C.2       1 <0>         0.0000
     13 C13         3.8368   -0.4112    4.6692 C.3       1 <0>         0.0000
     14 N1          7.6087    0.7792    6.1950 N.2       1 <0>         0.0000
     15 N2          4.4309   -1.5116    3.9022 N.2       1 <0>         0.0000
     16 N3          6.4868   -1.1287    6.4983 N.pl3     1 <0>         0.0000
     17 S1          7.4135   -0.3579    8.7619 S.3       1 <0>         0.0000
     18 Cl1         3.0194    0.9520    2.0275 Cl        1 <0>         0.0000
     19 Cl2         7.3180    1.1618    3.5373 Cl        1 <0>         0.0000
     20 H1         -0.6155   -0.9634    5.8351 H         1 <0>         0.0000
     21 H2         -1.4286    0.1113    3.7527 H         1 <0>         0.0000
     22 H3          1.8108   -1.1970    6.2458 H         1 <0>         0.0000
     23 H4          0.1780    0.9526    2.0806 H         1 <0>         0.0000
     24 H5          5.4716   -2.9425    7.0330 H         1 <0>         0.0000
     25 H6          6.2512   -2.4680    9.4859 H         1 <0>         0.0000
     26 H7          6.2636   -2.4895    3.6807 H         1 <0>         0.0000
     27 H8          4.3776    0.5183    4.4415 H         1 <0>         0.0000
     28 H9          4.0027   -0.5995    5.7390 H         1 <0>         0.0000
@<TRIPOS>BOND
     1    1    2 ar
     2    1    3 ar
     3    1   20 1
     4    2    4 ar
     5    2   21 1
     6    3    7 ar
     7    3   22 1
     8    4    8 ar
     9    4   23 1
    10    5    6 2
    11    5   16 1
    12    5   24 1
    13    6   17 1
    14    6   25 1
    15    7    8 ar
    16    7   13 1
    17    8   18 1
    18    9   10 2
    19    9   12 1
    20    9   16 1
    21   10   14 1
    22   10   19 1
    23   11   14 2
    24   11   16 1
    25   11   17 1
    26   12   15 2
    27   12   26 1
    28   13   15 1
    29   13   27 1
    30   13   28 1
