@<TRIPOS>MOLECULE
*****
   34    35     0     0     0
SMALL
NO_CHARGES

@<TRIPOS>ATOM
      1 C1          1.8851   -1.0363   -0.1124 C.ar      1 <0>         0.0000
      2 C2          0.8066   -0.4630    0.5610 C.ar      1 <0>         0.0000
      3 C3          2.8783   -1.6520    2.0022 C.ar      1 <0>         0.0000
      4 C4          5.1231   -2.7680   -1.8493 C.2       1 <0>         0.0000
      5 C5          2.9210   -1.6309    0.6081 C.ar      1 <0>         0.0000
      6 C6          1.7997   -1.0786    2.6757 C.ar      1 <0>         0.0000
      7 C7          0.7638   -0.4841    1.9551 C.ar      1 <0>         0.0000
      8 C8          5.7990   -3.1771   -0.7266 C.2       1 <0>         0.0000
      9 C9          4.0358   -2.2241   -0.0891 C.2       1 <0>         0.0000
     10 C10         6.9252   -5.4152   -0.6319 C.3       1 <0>         0.0000
     11 C11         2.0812    0.2201    6.3005 C.3       1 <0>         0.0000
     12 C12         1.7696   -1.1111    4.1681 C.3       1 <0>         0.0000
     13 C13         7.0811   -3.8880   -0.6316 C.3       1 <0>         0.0000
     14 C14         2.1452    0.2457    4.7816 C.3       1 <0>         0.0000
     15 N1          5.0975   -2.8255    0.3982 N.2       1 <0>         0.0000
     16 O1          3.9784   -2.1489   -1.4470 O.3       1 <0>         0.0000
     17 O2         -0.2964    0.0818    2.5967 O.3       1 <0>         0.0000
     18 H1          1.9042   -1.0119   -1.1994 H         1 <0>         0.0000
     19 H2          0.0026   -0.0016   -0.0060 H         1 <0>         0.0000
     20 H3          3.6840   -2.1137    2.5693 H         1 <0>         0.0000
     21 H4          5.2915   -2.8267   -2.9141 H         1 <0>         0.0000
     22 H5          6.2591   -5.7353    0.1765 H         1 <0>         0.0000
     23 H6          7.8885   -5.9168   -0.4962 H         1 <0>         0.0000
     24 H7          6.4941   -5.7588   -1.5784 H         1 <0>         0.0000
     25 H8          1.0808   -0.0592    6.6462 H         1 <0>         0.0000
     26 H9          2.8000   -0.4960    6.7113 H         1 <0>         0.0000
     27 H10         2.3169    1.2088    6.7065 H         1 <0>         0.0000
     28 H11         0.7693   -1.4056    4.5271 H         1 <0>         0.0000
     29 H12         2.4574   -1.8835    4.5510 H         1 <0>         0.0000
     30 H13         7.7614   -3.6120   -1.4639 H         1 <0>         0.0000
     31 H14         7.6387   -3.5998    0.2838 H         1 <0>         0.0000
     32 H15         3.1581    0.5282    4.4698 H         1 <0>         0.0000
     33 H16         1.4697    1.0243    4.4070 H         1 <0>         0.0000
     34 H17        -0.9216    0.4483    1.9519 H         1 <0>         0.0000
@<TRIPOS>BOND
     1    1    2 ar
     2    1    5 ar
     3    1   18 1
     4    2    7 ar
     5    2   19 1
     6    3    5 ar
     7    3    6 ar
     8    3   20 1
     9    4    8 2
    10    4   16 1
    11    4   21 1
    12    5    9 1
    13    6    7 ar
    14    6   12 1
    15    7   17 1
    16    8   13 1
    17    8   15 1
    18    9   15 2
    19    9   16 1
    20   10   13 1
    21   10   22 1
    22   10   23 1
    23   10   24 1
    24   11   14 1
    25   11   25 1
    26   11   26 1
    27   11   27 1
    28   12   14 1
    29   12   28 1
    30   12   29 1
    31   13   30 1
    32   13   31 1
    33   14   32 1
    34   14   33 1
    35   17   34 1
