@<TRIPOS>MOLECULE
*****
   36    38     0     0     0
SMALL
NO_CHARGES

@<TRIPOS>ATOM
      1 C1          4.7277   -2.9673    1.4114 C.1       1 <0>         0.0000
      2 C2         -1.9616   -1.8782    2.1785 C.1       1 <0>         0.0000
      3 C3         -7.9333    0.5479    3.7298 C.ar      1 <0>         0.0000
      4 C4         -8.4679    1.6493    4.4037 C.ar      1 <0>         0.0000
      5 C5          2.2649   -2.9483    1.4643 C.ar      1 <0>         0.0000
      6 C6          3.5075   -1.1457    2.5294 C.ar      1 <0>         0.0000
      7 C7         -6.5512    0.4137    3.6287 C.ar      1 <0>         0.0000
      8 C8          1.0671   -2.3550    1.8420 C.ar      1 <0>         0.0000
      9 C9          2.3061   -0.5580    2.9038 C.ar      1 <0>         0.0000
     10 C10        -7.6139    2.6003    4.9667 C.ar      1 <0>         0.0000
     11 C11         3.4923   -2.3498    1.8043 C.ar      1 <0>         0.0000
     12 C12        -5.6868    1.3705    4.1951 C.ar      1 <0>         0.0000
     13 C13         1.0638   -1.1444    2.5714 C.ar      1 <0>         0.0000
     14 C14        -6.2188    2.4910    4.8806 C.ar      1 <0>         0.0000
     15 C15        -4.2446    1.1326    4.0304 C.2       1 <0>         0.0000
     16 C16        -2.4757    0.1612    3.4171 C.2       1 <0>         0.0000
     17 C17        -0.1288   -0.4384    3.0169 C.2       1 <0>         0.0000
     18 C18        -1.4528   -0.7264    2.8650 C.2       1 <0>         0.0000
     19 C19        -5.3613    3.5587    5.5142 C.3       1 <0>         0.0000
     20 N1          5.7312   -3.4671    1.0933 N.1       1 <0>         0.0000
     21 N2         -2.3662   -2.8164    1.6192 N.1       1 <0>         0.0000
     22 N3         -3.7672    0.0187    3.3495 N.2       1 <0>         0.0000
     23 N4         -3.2835    1.9163    4.4908 N.2       1 <0>         0.0000
     24 O1         -2.0941    1.2705    4.0831 O.3       1 <0>         0.0000
     25 H1         -8.5858   -0.1995    3.2871 H         1 <0>         0.0000
     26 H2         -9.5446    1.7695    4.4919 H         1 <0>         0.0000
     27 H3          2.2589   -3.8781    0.9043 H         1 <0>         0.0000
     28 H4          4.4543   -0.6845    2.7914 H         1 <0>         0.0000
     29 H5         -6.1185   -0.4343    3.1096 H         1 <0>         0.0000
     30 H6          0.1390   -2.8379    1.5667 H         1 <0>         0.0000
     31 H7          2.3221    0.3729    3.4645 H         1 <0>         0.0000
     32 H8         -8.0382    3.4540    5.4893 H         1 <0>         0.0000
     33 H9          0.0721    0.4780    3.5663 H         1 <0>         0.0000
     34 H10        -4.6939    3.1402    6.2733 H         1 <0>         0.0000
     35 H11        -4.7154    4.0452    4.7773 H         1 <0>         0.0000
     36 H12        -5.9897    4.3198    5.9837 H         1 <0>         0.0000
@<TRIPOS>BOND
     1    1   11 1
     2    1   20 3
     3    2   18 1
     4    2   21 3
     5    3    4 ar
     6    3    7 ar
     7    3   25 1
     8    4   10 ar
     9    4   26 1
    10    5    8 ar
    11    5   11 ar
    12    5   27 1
    13    6    9 ar
    14    6   11 ar
    15    6   28 1
    16    7   12 ar
    17    7   29 1
    18    8   13 ar
    19    8   30 1
    20    9   13 ar
    21    9   31 1
    22   10   14 ar
    23   10   32 1
    24   12   14 ar
    25   12   15 1
    26   13   17 1
    27   14   19 1
    28   15   22 1
    29   15   23 2
    30   16   18 1
    31   16   22 2
    32   16   24 1
    33   17   18 2
    34   17   33 1
    35   19   34 1
    36   19   35 1
    37   19   36 1
    38   23   24 1
