@<TRIPOS>MOLECULE
*****
   56    57     0     0     0
SMALL
NO_CHARGES

@<TRIPOS>ATOM
      1 C1         -2.6434   -1.2040   -0.9861 C.2       1 <0>         0.0000
      2 C2         -1.7693   -0.0907   -0.6921 C.2       1 <0>         0.0000
      3 C3         -0.7160   -0.4634    0.0988 C.2       1 <0>         0.0000
      4 C4         -3.8667   -1.1919   -1.7695 C.2       1 <0>         0.0000
      5 C5         -2.2248   -2.3882   -0.4134 C.2       1 <0>         0.0000
      6 C6         -4.0424   -3.6523   -1.3496 C.2       1 <0>         0.0000
      7 C7         -1.9916    1.3087   -1.1941 C.3       1 <0>         0.0000
      8 C8         -8.3204   -2.2312   -2.4396 C.3       1 <0>         0.0000
      9 C9         -6.9329   -0.9541   -0.7810 C.3       1 <0>         0.0000
     10 C10        -7.5461   -4.5705   -0.9417 C.3       1 <0>         0.0000
     11 C11         0.4311    0.3664    0.6032 C.3       1 <0>         0.0000
     12 C12        -1.3541   -5.4831   -1.0210 C.3       1 <0>         0.0000
     13 C13        -2.3387   -4.8373   -0.0395 C.3       1 <0>         0.0000
     14 C14        -5.8390   -2.4770   -2.5161 C.3       1 <0>         0.0000
     15 C15         3.4058    1.8872   -1.1861 C.3       1 <0>         0.0000
     16 C16         2.5247    1.4581   -0.0137 C.3       1 <0>         0.0000
     17 C17        -0.6489   -6.6847   -0.4195 C.3       1 <0>         0.0000
     18 C18        -7.0512   -2.2578   -1.5740 C.3       1 <0>         0.0000
     19 N1         -4.5427   -2.4374   -1.8233 N.am      1 <0>         0.0000
     20 N2         -2.8931   -3.5808   -0.5574 N.am      1 <0>         0.0000
     21 N3          4.6150    2.5619   -0.6875 N.3       1 <0>         0.0000
     22 N4          1.3203    0.7751   -0.4909 N.3       1 <0>         0.0000
     23 O1         -4.3219   -0.2067   -2.3476 O.2       1 <0>         0.0000
     24 O2         -4.5559   -4.7351   -1.6097 O.2       1 <0>         0.0000
     25 O3         -7.0983   -3.2744   -0.5580 O.3       1 <0>         0.0000
     26 F1         -1.5872   -7.6618   -0.0420 F         1 <0>         0.0000
     27 S1         -0.7600   -2.1854    0.4969 S.3       1 <0>         0.0000
     28 H1         -2.9445    1.7029   -0.8286 H         1 <0>         0.0000
     29 H2         -1.1760    1.9643   -0.8859 H         1 <0>         0.0000
     30 H3         -2.0517    1.3183   -2.2855 H         1 <0>         0.0000
     31 H4         -8.4051   -3.1127   -3.0826 H         1 <0>         0.0000
     32 H5         -9.2079   -2.1821   -1.8016 H         1 <0>         0.0000
     33 H6         -8.3150   -1.3466   -3.0835 H         1 <0>         0.0000
     34 H7         -6.0868   -1.0039   -0.0909 H         1 <0>         0.0000
     35 H8         -7.8404   -0.8124   -0.1869 H         1 <0>         0.0000
     36 H9         -6.7901   -0.0972   -1.4417 H         1 <0>         0.0000
     37 H10        -7.3684   -5.2159   -0.0785 H         1 <0>         0.0000
     38 H11        -6.9804   -4.9748   -1.7870 H         1 <0>         0.0000
     39 H12        -8.6196   -4.5756   -1.1719 H         1 <0>         0.0000
     40 H13         0.0435    1.2761    1.0781 H         1 <0>         0.0000
     41 H14         0.9645   -0.1863    1.3977 H         1 <0>         0.0000
     42 H15        -0.5857   -4.7577   -1.3152 H         1 <0>         0.0000
     43 H16        -1.8948   -5.7815   -1.9241 H         1 <0>         0.0000
     44 H17        -1.8547   -4.6167    0.9175 H         1 <0>         0.0000
     45 H18        -3.1731   -5.5093    0.1525 H         1 <0>         0.0000
     46 H19        -5.9185   -3.4436   -3.0122 H         1 <0>         0.0000
     47 H20        -5.8226   -1.6903   -3.2701 H         1 <0>         0.0000
     48 H21         2.7998    2.4918   -1.8788 H         1 <0>         0.0000
     49 H22         3.7266    0.9939   -1.7370 H         1 <0>         0.0000
     50 H23         3.1259    0.8481    0.6821 H         1 <0>         0.0000
     51 H24         2.2047    2.3491    0.5439 H         1 <0>         0.0000
     52 H25        -0.0879   -6.4150    0.4827 H         1 <0>         0.0000
     53 H26         0.0310   -7.1487   -1.1404 H         1 <0>         0.0000
     54 H27         4.3606    3.4636   -0.2860 H         1 <0>         0.0000
     55 H28         5.2407    2.7646   -1.4650 H         1 <0>         0.0000
     56 H29         1.5864   -0.0557   -1.0180 H         1 <0>         0.0000
@<TRIPOS>BOND
     1    1    2 1
     2    1    5 2
     3    1    4 1
     4    2    3 2
     5    2    7 1
     6    3   11 1
     7    3   27 1
     8    4   19 am
     9    4   23 2
    10    5   20 1
    11    5   27 1
    12    6   20 am
    13    6   19 am
    14    6   24 2
    15    7   28 1
    16    7   29 1
    17    7   30 1
    18    8   18 1
    19    8   31 1
    20    8   32 1
    21    8   33 1
    22    9   18 1
    23    9   34 1
    24    9   35 1
    25    9   36 1
    26   10   25 1
    27   10   37 1
    28   10   38 1
    29   10   39 1
    30   11   22 1
    31   11   40 1
    32   11   41 1
    33   12   13 1
    34   12   17 1
    35   12   42 1
    36   12   43 1
    37   13   20 1
    38   13   44 1
    39   13   45 1
    40   14   18 1
    41   14   19 1
    42   14   46 1
    43   14   47 1
    44   15   16 1
    45   15   21 1
    46   15   48 1
    47   15   49 1
    48   16   22 1
    49   16   50 1
    50   16   51 1
    51   17   26 1
    52   17   52 1
    53   17   53 1
    54   18   25 1
    55   21   54 1
    56   21   55 1
    57   22   56 1
