@<TRIPOS>MOLECULE
*****
   56    60     0     0     0
SMALL
NO_CHARGES

@<TRIPOS>ATOM
      1 C1         -1.3102    2.1970    1.4761 C.ar      1 <0>         0.0000
      2 C2         -1.2920    1.1225    0.5626 C.ar      1 <0>         0.0000
      3 C3         -1.9184   -4.7843    1.5314 C.ar      1 <0>         0.0000
      4 C4         -2.2821    2.2783    2.4754 C.ar      1 <0>         0.0000
      5 C5         -5.2398    1.3217    5.8175 C.ar      1 <0>         0.0000
      6 C6         -4.7223    3.2640    4.4988 C.ar      1 <0>         0.0000
      7 C7         -2.7396   -3.7803    0.9968 C.ar      1 <0>         0.0000
      8 C8         -2.2452    0.1038    0.6407 C.ar      1 <0>         0.0000
      9 C9         -1.9180   -5.0487    2.8990 C.ar      1 <0>         0.0000
     10 C10        -5.6229    2.1449    6.8822 C.ar      1 <0>         0.0000
     11 C11        -5.0933    4.0929    5.5551 C.ar      1 <0>         0.0000
     12 C12        -3.5773   -3.3016    3.2201 C.ar      1 <0>         0.0000
     13 C13        -3.2658    1.2754    2.5701 C.ar      1 <0>         0.0000
     14 C14        -4.7775    1.8575    4.6026 C.ar      1 <0>         0.0000
     15 C15        -4.3572    1.0018    3.4815 C.2       1 <0>         0.0000
     16 C16        -3.5705   -3.0402    1.8418 C.ar      1 <0>         0.0000
     17 C17        -3.2229    0.1969    1.6358 C.ar      1 <0>         0.0000
     18 C18        -5.5443    3.5373    6.7590 C.ar      1 <0>         0.0000
     19 C19        -2.7532   -4.2990    3.7467 C.ar      1 <0>         0.0000
     20 C20        -4.9295   -0.2002    3.0741 C.2       1 <0>         0.0000
     21 C21        -6.0890   -1.0298    3.6389 C.2       1 <0>         0.0000
     22 C22        -7.7020    4.8572   10.9952 C.3       1 <0>         0.0000
     23 C23        -7.9903    5.7537    9.8072 C.3       1 <0>         0.0000
     24 C24        -6.6599    5.0475    9.9136 C.3       1 <0>         0.0000
     25 C25        -3.5295   -3.8263    5.9549 C.3       1 <0>         0.0000
     26 C26        -4.4816   -1.9505    1.3020 C.3       1 <0>         0.0000
     27 C27        -6.3516    3.9013    8.9877 C.3       1 <0>         0.0000
     28 N1         -4.2608   -0.6619    1.9439 N.pl3     1 <0>         0.0000
     29 O1         -5.8807   -1.5260    4.7851 O.co2     1 <0>         0.0000
     30 O2         -7.0725   -1.1726    2.8737 O.co2     1 <0>         0.0000
     31 O3         -2.7071   -4.6115    5.0805 O.3       1 <0>         0.0000
     32 O4         -5.8947    4.4368    7.7506 O.3       1 <0>         0.0000
     33 H1         -0.5458    2.9684    1.4079 H         1 <0>         0.0000
     34 H2         -0.5188    1.0761   -0.2011 H         1 <0>         0.0000
     35 H3         -1.2677   -5.3595    0.8759 H         1 <0>         0.0000
     36 H4         -2.2596    3.0982    3.1876 H         1 <0>         0.0000
     37 H5         -5.3155    0.2425    5.9130 H         1 <0>         0.0000
     38 H6         -4.4137    3.7164    3.5610 H         1 <0>         0.0000
     39 H7         -2.7257   -3.5736   -0.0715 H         1 <0>         0.0000
     40 H8         -2.2108   -0.7430   -0.0391 H         1 <0>         0.0000
     41 H9         -1.2842   -5.8194    3.3297 H         1 <0>         0.0000
     42 H10        -5.9787    1.6797    7.7956 H         1 <0>         0.0000
     43 H11        -5.0542    5.1753    5.4598 H         1 <0>         0.0000
     44 H12        -4.2321   -2.7252    3.8659 H         1 <0>         0.0000
     45 H13        -7.5267    5.3206   11.9620 H         1 <0>         0.0000
     46 H14        -8.2139    3.8995   11.0442 H         1 <0>         0.0000
     47 H15        -8.6851    5.3936    9.0538 H         1 <0>         0.0000
     48 H16        -8.0148    6.8278    9.9670 H         1 <0>         0.0000
     49 H17        -5.8016    5.6656   10.1665 H         1 <0>         0.0000
     50 H18        -3.3534   -4.2251    6.9561 H         1 <0>         0.0000
     51 H19        -4.5902   -3.9076    5.6977 H         1 <0>         0.0000
     52 H20        -3.2502   -2.7680    5.9198 H         1 <0>         0.0000
     53 H21        -4.3291   -1.8307    0.2248 H         1 <0>         0.0000
     54 H22        -5.5320   -2.2059    1.4621 H         1 <0>         0.0000
     55 H23        -7.2526    3.2904    8.8294 H         1 <0>         0.0000
     56 H24        -5.5796    3.2518    9.4253 H         1 <0>         0.0000
@<TRIPOS>BOND
     1    1    2 ar
     2    1    4 ar
     3    1   33 1
     4    2    8 ar
     5    2   34 1
     6    3    7 ar
     7    3    9 ar
     8    3   35 1
     9    4   13 ar
    10    4   36 1
    11    5   10 ar
    12    5   14 ar
    13    5   37 1
    14    6   11 ar
    15    6   14 ar
    16    6   38 1
    17    7   16 ar
    18    7   39 1
    19    8   17 ar
    20    8   40 1
    21    9   19 ar
    22    9   41 1
    23   10   18 ar
    24   10   42 1
    25   11   18 ar
    26   11   43 1
    27   12   16 ar
    28   12   19 ar
    29   12   44 1
    30   13   15 1
    31   13   17 ar
    32   14   15 1
    33   15   20 2
    34   16   26 1
    35   17   28 1
    36   18   32 1
    37   19   31 1
    38   20   21 1
    39   20   28 1
    40   21   29 1
    41   21   30 2
    42   22   23 1
    43   22   24 1
    44   22   45 1
    45   22   46 1
    46   23   24 1
    47   23   47 1
    48   23   48 1
    49   24   27 1
    50   24   49 1
    51   25   31 1
    52   25   50 1
    53   25   51 1
    54   25   52 1
    55   26   28 1
    56   26   53 1
    57   26   54 1
    58   27   32 1
    59   27   55 1
    60   27   56 1
