@<TRIPOS>MOLECULE
*****
   49    53     0     0     0
SMALL
NO_CHARGES

@<TRIPOS>ATOM
      1 C1         -0.2429    3.3760    4.9179 C.ar      1 <0>         0.0000
      2 C2          1.2561   -1.9036   -0.4835 C.ar      1 <0>         0.0000
      3 C3         -1.0352    2.8658    3.8872 C.ar      1 <0>         0.0000
      4 C4          0.1945   -1.3107    0.1993 C.ar      1 <0>         0.0000
      5 C5         -0.1816    2.7274    6.1551 C.ar      1 <0>         0.0000
      6 C6          3.6115   -2.5176   -2.2784 C.ar      1 <0>         0.0000
      7 C7          1.8258   -0.3189    1.6917 C.ar      1 <0>         0.0000
      8 C8          4.5809   -3.2971   -0.2425 C.ar      1 <0>         0.0000
      9 C9         -1.7109    1.0318    5.3097 C.ar      1 <0>         0.0000
     10 C10         4.5429   -3.3072   -2.9537 C.ar      1 <0>         0.0000
     11 C11         2.6006   -1.7370   -0.1117 C.ar      1 <0>         0.0000
     12 C12         3.6196   -2.5003   -0.8763 C.ar      1 <0>         0.0000
     13 C13         2.9001   -0.9005    0.9965 C.ar      1 <0>         0.0000
     14 C14        -1.7746    1.6867    4.0715 C.ar      1 <0>         0.0000
     15 C15         0.4959   -0.5136    1.3131 C.ar      1 <0>         0.0000
     16 C16        -0.9265    1.5610    6.3343 C.ar      1 <0>         0.0000
     17 C17         5.4811   -4.0516   -0.9988 C.ar      1 <0>         0.0000
     18 C18         4.2504   -0.5538    1.4555 C.2       1 <0>         0.0000
     19 C19        -1.8290    0.2403    1.9138 C.2       1 <0>         0.0000
     20 C20        -4.0048    0.6832    3.1823 C.3       1 <0>         0.0000
     21 C21        -3.7147    1.9035    2.3553 C.3       1 <0>         0.0000
     22 C22        -2.5618    1.0958    2.9405 C.3       1 <0>         0.0000
     23 C23         6.5650   -4.8591   -0.3265 C.3       1 <0>         0.0000
     24 N1          6.3410   -0.1540    1.5423 N.2       1 <0>         0.0000
     25 N2          5.4643   -4.0672   -2.3474 N.ar      1 <0>         0.0000
     26 N3          5.3841   -0.6260    0.7278 N.2       1 <0>         0.0000
     27 N4          4.4829   -0.0471    2.6888 N.2       1 <0>         0.0000
     28 N5          5.8023    0.1869    2.7164 N.2       1 <0>         0.0000
     29 N6         -0.4845    0.1370    2.1075 N.am      1 <0>         0.0000
     30 O1         -2.4511   -0.2909    0.9891 O.2       1 <0>         0.0000
     31 Cl1        -0.8680    0.7319    7.8855 Cl        1 <0>         0.0000
     32 H1          0.3416    4.2782    4.7599 H         1 <0>         0.0000
     33 H2          1.0307   -2.5558   -1.3236 H         1 <0>         0.0000
     34 H3         -1.0724    3.3705    2.9254 H         1 <0>         0.0000
     35 H4         -0.8310   -1.4639   -0.1069 H         1 <0>         0.0000
     36 H5          0.4371    3.1119    6.9595 H         1 <0>         0.0000
     37 H6          2.9070   -1.9068   -2.8365 H         1 <0>         0.0000
     38 H7          2.0733    0.3144    2.5403 H         1 <0>         0.0000
     39 H8          4.6432   -3.3115    0.8400 H         1 <0>         0.0000
     40 H9         -2.2639    0.1108    5.4656 H         1 <0>         0.0000
     41 H10         4.5512   -3.3265   -4.0442 H         1 <0>         0.0000
     42 H11        -4.3944    0.8266    4.1857 H         1 <0>         0.0000
     43 H12        -4.3392   -0.2053    2.6576 H         1 <0>         0.0000
     44 H13        -3.8559    1.8252    1.2826 H         1 <0>         0.0000
     45 H14        -3.8975    2.8786    2.7970 H         1 <0>         0.0000
     46 H15         6.7940   -5.7534   -0.9127 H         1 <0>         0.0000
     47 H16         7.4806   -4.2601   -0.2518 H         1 <0>         0.0000
     48 H17         6.2797   -5.1514    0.6884 H         1 <0>         0.0000
     49 H18        -0.1049    0.6340    2.9037 H         1 <0>         0.0000
@<TRIPOS>BOND
     1    1    3 ar
     2    1    5 ar
     3    1   32 1
     4    2    4 ar
     5    2   11 ar
     6    2   33 1
     7    3   14 ar
     8    3   34 1
     9    4   15 ar
    10    4   35 1
    11    5   16 ar
    12    5   36 1
    13    6   10 ar
    14    6   12 ar
    15    6   37 1
    16    7   13 ar
    17    7   15 ar
    18    7   38 1
    19    8   12 ar
    20    8   17 ar
    21    8   39 1
    22    9   14 ar
    23    9   16 ar
    24    9   40 1
    25   10   25 ar
    26   10   41 1
    27   11   12 1
    28   11   13 ar
    29   13   18 1
    30   14   22 1
    31   15   29 1
    32   16   31 1
    33   17   23 1
    34   17   25 ar
    35   18   26 2
    36   18   27 1
    37   19   22 1
    38   19   29 am
    39   19   30 2
    40   20   21 1
    41   20   22 1
    42   20   42 1
    43   20   43 1
    44   21   22 1
    45   21   44 1
    46   21   45 1
    47   23   46 1
    48   23   47 1
    49   23   48 1
    50   24   26 1
    51   24   28 1
    52   27   28 2
    53   29   49 1
