@<TRIPOS>MOLECULE
*****
   35    37     0     0     0
SMALL
NO_CHARGES

@<TRIPOS>ATOM
      1 C1         -2.4857    1.6775    1.3961 C.ar      1 <0>         0.0000
      2 C2         -2.1908    2.7171    0.5037 C.ar      1 <0>         0.0000
      3 C3         -1.7420    0.4963    1.3772 C.ar      1 <0>         0.0000
      4 C4         -1.1495    2.5855   -0.4163 C.ar      1 <0>         0.0000
      5 C5         -0.7090    0.3766    0.4589 C.ar      1 <0>         0.0000
      6 C6         -0.4176    1.4071   -0.4251 C.ar      1 <0>         0.0000
      7 C7          1.1098   -1.0592    1.4553 C.3       1 <0>         0.0000
      8 C8         -0.4934   -2.0402   -0.2297 C.3       1 <0>         0.0000
      9 C9          2.0144   -2.2713    1.2169 C.3       1 <0>         0.0000
     10 C10         0.4817   -3.2092   -0.3936 C.3       1 <0>         0.0000
     11 C11         0.2275   -0.7651    0.2328 C.3       1 <0>         0.0000
     12 C12         0.7306    1.0150   -1.2942 C.3       1 <0>         0.0000
     13 C13         0.3405    0.9258   -2.7680 C.3       1 <0>         0.0000
     14 C14         1.9458    1.9184   -1.0957 C.3       1 <0>         0.0000
     15 N1          1.2456   -3.4563    0.8310 N.3       1 <0>         0.0000
     16 O1          1.0921   -0.3181   -0.8493 O.3       1 <0>         0.0000
     17 H1         -3.2985    1.7932    2.1077 H         1 <0>         0.0000
     18 H2         -2.7780    3.6309    0.5285 H         1 <0>         0.0000
     19 H3         -1.9733   -0.3064    2.0695 H         1 <0>         0.0000
     20 H4         -0.9237    3.3916   -1.1064 H         1 <0>         0.0000
     21 H5          0.4867   -1.2462    2.3397 H         1 <0>         0.0000
     22 H6          1.7437   -0.1937    1.6865 H         1 <0>         0.0000
     23 H7         -0.9937   -1.8691   -1.1914 H         1 <0>         0.0000
     24 H8         -1.2719   -2.3217    0.4916 H         1 <0>         0.0000
     25 H9          2.7656   -2.0477    0.4498 H         1 <0>         0.0000
     26 H10         2.5676   -2.4949    2.1359 H         1 <0>         0.0000
     27 H11        -0.0800   -4.1152   -0.6470 H         1 <0>         0.0000
     28 H12         1.1671   -3.0256   -1.2298 H         1 <0>         0.0000
     29 H13         1.2062    0.6379   -3.3624 H         1 <0>         0.0000
     30 H14        -0.0231    1.8924   -3.1129 H         1 <0>         0.0000
     31 H15        -0.4445    0.1824   -2.8979 H         1 <0>         0.0000
     32 H16         2.7560    1.5960   -1.7477 H         1 <0>         0.0000
     33 H17         2.2792    1.8666   -0.0605 H         1 <0>         0.0000
     34 H18         1.6836    2.9478   -1.3349 H         1 <0>         0.0000
     35 H19         0.5965   -3.6876    1.5835 H         1 <0>         0.0000
@<TRIPOS>BOND
     1    1    2 ar
     2    1    3 ar
     3    1   17 1
     4    2    4 ar
     5    2   18 1
     6    3    5 ar
     7    3   19 1
     8    4    6 ar
     9    4   20 1
    10    5    6 ar
    11    5   11 1
    12    6   12 1
    13    7    9 1
    14    7   11 1
    15    7   21 1
    16    7   22 1
    17    8   10 1
    18    8   11 1
    19    8   23 1
    20    8   24 1
    21    9   15 1
    22    9   25 1
    23    9   26 1
    24   10   15 1
    25   10   27 1
    26   10   28 1
    27   11   16 1
    28   12   13 1
    29   12   14 1
    30   12   16 1
    31   13   29 1
    32   13   30 1
    33   13   31 1
    34   14   32 1
    35   14   33 1
    36   14   34 1
    37   15   35 1
