@<TRIPOS>MOLECULE
*****
   52    55     0     0     0
SMALL
NO_CHARGES

@<TRIPOS>ATOM
      1 C1          3.8759   -2.1604    3.2573 C.1       1 <0>         0.0000
      2 C2          0.0314    3.3911   -1.0742 C.ar      1 <0>         0.0000
      3 C3          0.7569    2.4200   -0.3420 C.ar      1 <0>         0.0000
      4 C4         -1.1908    3.1111   -1.6932 C.ar      1 <0>         0.0000
      5 C5         -0.9688    0.8535   -0.7971 C.ar      1 <0>         0.0000
      6 C6          0.2626    1.1236   -0.1915 C.ar      1 <0>         0.0000
      7 C7         -1.7051   -0.3705   -0.7815 C.2       1 <0>         0.0000
      8 C8         -1.6861    1.8082   -1.5524 C.ar      1 <0>         0.0000
      9 C9         -2.8384   -0.1539   -1.5293 C.2       1 <0>         0.0000
     10 C10        -1.1543   -1.5190    0.0118 C.3       1 <0>         0.0000
     11 C11         2.4522   -0.0019    0.4015 C.3       1 <0>         0.0000
     12 C12         2.4642   -2.5148    0.5872 C.3       1 <0>         0.0000
     13 C13         0.9196   -0.0323    0.5519 C.3       1 <0>         0.0000
     14 C14         3.1530   -1.2096    1.0432 C.3       1 <0>         0.0000
     15 C15         0.3881   -1.4144    0.0422 C.3       1 <0>         0.0000
     16 C16         0.6258   -5.4358    1.5130 C.3       1 <0>         0.0000
     17 C17        -6.2926   -1.1395   -2.2445 C.3       1 <0>         0.0000
     18 C18         3.2456   -1.0229    2.5778 C.3       1 <0>         0.0000
     19 C19        -3.9522   -1.0675   -1.9119 C.3       1 <0>         0.0000
     20 C20         0.9450   -4.3203    2.5132 C.3       1 <0>         0.0000
     21 C21         0.4844   -2.9330    2.0417 C.3       1 <0>         0.0000
     22 N1          4.3755   -3.0781    3.7688 N.1       1 <0>         0.0000
     23 N2         -2.8134    1.1561   -2.0296 N.pl3     1 <0>         0.0000
     24 N3          1.0114   -2.5536    0.7275 N.3       1 <0>         0.0000
     25 O1         -5.1864   -0.3547   -1.8231 O.3       1 <0>         0.0000
     26 H1          0.4458    4.3920   -1.1650 H         1 <0>         0.0000
     27 H2          1.7076    2.7087    0.0978 H         1 <0>         0.0000
     28 H3         -1.7173    3.8753   -2.2593 H         1 <0>         0.0000
     29 H4         -1.5568   -1.4645    1.0299 H         1 <0>         0.0000
     30 H5         -1.4302   -2.4980   -0.3935 H         1 <0>         0.0000
     31 H6          2.6848    0.0092   -0.6705 H         1 <0>         0.0000
     32 H7          2.8585    0.9288    0.8131 H         1 <0>         0.0000
     33 H8          2.6920   -2.6348   -0.4811 H         1 <0>         0.0000
     34 H9          2.9063   -3.3755    1.0926 H         1 <0>         0.0000
     35 H10         0.6560    0.0515    1.6166 H         1 <0>         0.0000
     36 H11         4.1852   -1.2467    0.6726 H         1 <0>         0.0000
     37 H12         0.7143   -1.4876   -1.0062 H         1 <0>         0.0000
     38 H13        -0.4485   -5.4730    1.2957 H         1 <0>         0.0000
     39 H14         1.1447   -5.2775    0.5636 H         1 <0>         0.0000
     40 H15         0.9239   -6.4124    1.9089 H         1 <0>         0.0000
     41 H16        -7.1836   -0.5148   -2.1526 H         1 <0>         0.0000
     42 H17        -6.4127   -2.0322   -1.6132 H         1 <0>         0.0000
     43 H18        -6.1820   -1.4607   -3.2912 H         1 <0>         0.0000
     44 H19         2.2608   -0.8651    3.0235 H         1 <0>         0.0000
     45 H20         3.8385   -0.1282    2.7995 H         1 <0>         0.0000
     46 H21        -3.8218   -1.4341   -2.9448 H         1 <0>         0.0000
     47 H22        -3.9563   -1.9430   -1.2470 H         1 <0>         0.0000
     48 H23         2.0126   -4.3209    2.7513 H         1 <0>         0.0000
     49 H24         0.4342   -4.5171    3.4640 H         1 <0>         0.0000
     50 H25        -0.6036   -2.9723    1.9575 H         1 <0>         0.0000
     51 H26         0.6981   -2.1990    2.8389 H         1 <0>         0.0000
     52 H27        -3.6387    1.6003   -2.4093 H         1 <0>         0.0000
@<TRIPOS>BOND
     1    1   18 1
     2    1   22 3
     3    2    3 ar
     4    2    4 ar
     5    2   26 1
     6    3    6 ar
     7    3   27 1
     8    4    8 ar
     9    4   28 1
    10    5    6 ar
    11    5    7 1
    12    5    8 ar
    13    6   13 1
    14    7    9 2
    15    7   10 1
    16    8   23 1
    17    9   19 1
    18    9   23 1
    19   10   15 1
    20   10   29 1
    21   10   30 1
    22   11   13 1
    23   11   14 1
    24   11   31 1
    25   11   32 1
    26   12   14 1
    27   12   24 1
    28   12   33 1
    29   12   34 1
    30   13   15 1
    31   13   35 1
    32   14   18 1
    33   14   36 1
    34   15   24 1
    35   15   37 1
    36   16   20 1
    37   16   38 1
    38   16   39 1
    39   16   40 1
    40   17   25 1
    41   17   41 1
    42   17   42 1
    43   17   43 1
    44   18   44 1
    45   18   45 1
    46   19   25 1
    47   19   46 1
    48   19   47 1
    49   20   21 1
    50   20   48 1
    51   20   49 1
    52   21   24 1
    53   21   50 1
    54   21   51 1
    55   23   52 1
