@<TRIPOS>MOLECULE
*****
   53    55     0     0     0
SMALL
NO_CHARGES

@<TRIPOS>ATOM
      1 C1         -2.6011   -1.3407   -1.4825 C.2       1 <0>         0.0000
      2 C2         -1.6887   -0.2543   -1.1906 C.2       1 <0>         0.0000
      3 C3         -0.6637   -0.6577   -0.3784 C.2       1 <0>         0.0000
      4 C4         -3.7781   -1.3076   -2.3296 C.2       1 <0>         0.0000
      5 C5         -2.2453   -2.5271   -0.8730 C.2       1 <0>         0.0000
      6 C6         -4.0802   -3.7517   -1.8431 C.2       1 <0>         0.0000
      7 C7          1.6718    0.0717    2.3642 C.2       1 <0>         0.0000
      8 C8         -0.0685    0.5867    3.8456 C.3       1 <0>         0.0000
      9 C9         -0.5650    0.7706    2.4000 C.3       1 <0>         0.0000
     10 C10        -1.8787    1.1360   -1.7351 C.3       1 <0>         0.0000
     11 C11        -6.4226   -2.9970   -5.7506 C.3       1 <0>         0.0000
     12 C12        -4.1142   -1.9858   -5.4925 C.3       1 <0>         0.0000
     13 C13        -4.8891   -4.3199    2.6448 C.3       1 <0>         0.0000
     14 C14         0.4940    0.1103    0.1893 C.3       1 <0>         0.0000
     15 C15        -2.6300   -4.8855   -0.2111 C.3       1 <0>         0.0000
     16 C16        -5.5360   -2.6244   -3.4462 C.3       1 <0>         0.0000
     17 C17        -3.0359   -4.7511    1.2539 C.3       1 <0>         0.0000
     18 C18        -5.1548   -2.9301   -4.9041 C.3       1 <0>         0.0000
     19 N1         -4.3935   -2.5667   -2.5248 N.am      1 <0>         0.0000
     20 N2         -2.9534   -3.6954   -1.0064 N.am      1 <0>         0.0000
     21 N3          1.3810    0.5423    3.6438 N.am      1 <0>         0.0000
     22 N4          0.4832    0.0968    1.6431 N.am      1 <0>         0.0000
     23 O1         -4.2286   -0.3005   -2.8764 O.2       1 <0>         0.0000
     24 O2         -4.7357   -4.7735   -1.9648 O.2       1 <0>         0.0000
     25 O3          2.7659   -0.2906    1.9501 O.2       1 <0>         0.0000
     26 O4         -4.4278   -4.5128    1.3176 O.3       1 <0>         0.0000
     27 F1         -4.5734   -4.2269   -4.9254 F         1 <0>         0.0000
     28 S1         -0.7937   -2.3643    0.0703 S.3       1 <0>         0.0000
     29 H1         -0.3623    1.4155    4.4942 H         1 <0>         0.0000
     30 H2         -0.4521   -0.3518    4.2692 H         1 <0>         0.0000
     31 H3         -1.5424    0.3137    2.2249 H         1 <0>         0.0000
     32 H4         -0.6225    1.8364    2.1307 H         1 <0>         0.0000
     33 H5         -2.8663    1.5207   -1.4688 H         1 <0>         0.0000
     34 H6         -1.1171    1.8235   -1.3623 H         1 <0>         0.0000
     35 H7         -1.8373    1.1307   -2.8280 H         1 <0>         0.0000
     36 H8         -7.1268   -3.7232   -5.3341 H         1 <0>         0.0000
     37 H9         -6.1724   -3.3041   -6.7696 H         1 <0>         0.0000
     38 H10        -6.9106   -2.0184   -5.7939 H         1 <0>         0.0000
     39 H11        -3.1797   -2.0438   -4.9293 H         1 <0>         0.0000
     40 H12        -4.4649   -0.9521   -5.4656 H         1 <0>         0.0000
     41 H13        -3.9073   -2.2737   -6.5274 H         1 <0>         0.0000
     42 H14        -5.9633   -4.1333    2.5856 H         1 <0>         0.0000
     43 H15        -4.3977   -3.4564    3.1191 H         1 <0>         0.0000
     44 H16        -4.7119   -5.2106    3.2661 H         1 <0>         0.0000
     45 H17         1.4529   -0.3201   -0.1141 H         1 <0>         0.0000
     46 H18         0.4646    1.1399   -0.1908 H         1 <0>         0.0000
     47 H19        -1.5537   -5.0766   -0.2812 H         1 <0>         0.0000
     48 H20        -3.1642   -5.7171   -0.6674 H         1 <0>         0.0000
     49 H21        -6.2062   -3.4045   -3.0878 H         1 <0>         0.0000
     50 H22        -6.0367   -1.6569   -3.4051 H         1 <0>         0.0000
     51 H23        -2.4856   -3.9344    1.7450 H         1 <0>         0.0000
     52 H24        -2.7686   -5.6879    1.7703 H         1 <0>         0.0000
     53 H25         1.9900    0.2072    4.3801 H         1 <0>         0.0000
@<TRIPOS>BOND
     1    1    2 1
     2    1    5 2
     3    1    4 1
     4    2    3 2
     5    2   10 1
     6    3   14 1
     7    3   28 1
     8    4   19 am
     9    4   23 2
    10    5   20 1
    11    5   28 1
    12    6   20 am
    13    6   19 am
    14    6   24 2
    15    7   21 am
    16    7   22 am
    17    7   25 2
    18    8    9 1
    19    8   21 1
    20    8   29 1
    21    8   30 1
    22    9   22 1
    23    9   31 1
    24    9   32 1
    25   10   33 1
    26   10   34 1
    27   10   35 1
    28   11   18 1
    29   11   36 1
    30   11   37 1
    31   11   38 1
    32   12   18 1
    33   12   39 1
    34   12   40 1
    35   12   41 1
    36   13   26 1
    37   13   42 1
    38   13   43 1
    39   13   44 1
    40   14   22 1
    41   14   45 1
    42   14   46 1
    43   15   17 1
    44   15   20 1
    45   15   47 1
    46   15   48 1
    47   16   18 1
    48   16   19 1
    49   16   49 1
    50   16   50 1
    51   17   26 1
    52   17   51 1
    53   17   52 1
    54   18   27 1
    55   21   53 1
