@<TRIPOS>MOLECULE
*****
   60    63     0     0     0
SMALL
NO_CHARGES

@<TRIPOS>ATOM
      1 C1          8.8791    0.0155   -7.4277 C.1       1 <0>         0.0000
      2 C2          7.5103   -1.0849   -5.7000 C.ar      1 <0>         0.0000
      3 C3          6.9652    1.1773   -6.3995 C.ar      1 <0>         0.0000
      4 C4          6.4437   -1.0581   -4.8069 C.ar      1 <0>         0.0000
      5 C5          5.9014    1.1906   -5.5029 C.ar      1 <0>         0.0000
      6 C6          4.1513    1.2708   -3.0360 C.ar      1 <0>         0.0000
      7 C7          3.7152   -1.0532   -3.5007 C.ar      1 <0>         0.0000
      8 C8          3.0879    1.2897   -2.1366 C.ar      1 <0>         0.0000
      9 C9          2.6546   -1.0349   -2.5973 C.ar      1 <0>         0.0000
     10 C10         2.1240   -1.6527    0.4092 C.ar      1 <0>         0.0000
     11 C11        -0.3670   -2.4658    1.3046 C.ar      1 <0>         0.0000
     12 C12         7.7796    0.0360   -6.5047 C.ar      1 <0>         0.0000
     13 C13         5.6189    0.0767   -4.6897 C.ar      1 <0>         0.0000
     14 C14         4.4864    0.0985   -3.7373 C.ar      1 <0>         0.0000
     15 C15         2.3194    0.1385   -1.9018 C.ar      1 <0>         0.0000
     16 C16         0.9793   -0.9644   -0.0378 C.ar      1 <0>         0.0000
     17 C17        -0.2843   -1.3889    0.4182 C.ar      1 <0>         0.0000
     18 C18         2.0348   -2.7288    1.2864 C.ar      1 <0>         0.0000
     19 C19         0.7702   -3.1412    1.7497 C.ar      1 <0>         0.0000
     20 C20         1.1527    0.1799   -0.9662 C.2       1 <0>         0.0000
     21 C21        -1.1539    2.9342   -0.7769 C.2       1 <0>         0.0000
     22 C22        -1.5167   -0.6191    0.0387 C.3       1 <0>         0.0000
     23 C23        -1.4546    0.8480    0.5109 C.3       1 <0>         0.0000
     24 C24        -0.9727    1.0174    1.9546 C.3       1 <0>         0.0000
     25 C25        -0.8987    4.8765   -2.2400 C.3       1 <0>         0.0000
     26 C26         3.3819   -4.6701    1.1833 C.3       1 <0>         0.0000
     27 C27         1.1612   -4.0228    3.9183 C.3       1 <0>         0.0000
     28 N1          9.7720   -0.0013   -8.1772 N.1       1 <0>         0.0000
     29 N2          0.4510    1.2647   -1.1040 N.2       1 <0>         0.0000
     30 N3         -0.6506    1.6513   -0.4293 N.am      1 <0>         0.0000
     31 N4         -0.4171    3.6172   -1.6957 N.am      1 <0>         0.0000
     32 O1         -2.1728    3.3732   -0.2419 O.2       1 <0>         0.0000
     33 O2          3.1954   -3.3455    1.7099 O.3       1 <0>         0.0000
     34 O3          0.6175   -4.2135    2.5988 O.3       1 <0>         0.0000
     35 H1          8.1446   -1.9630   -5.7731 H         1 <0>         0.0000
     36 H2          7.1661    2.0399   -7.0276 H         1 <0>         0.0000
     37 H3          6.2642   -1.9191   -4.1699 H         1 <0>         0.0000
     38 H4          5.2625    2.0673   -5.4516 H         1 <0>         0.0000
     39 H5          4.7538    2.1658   -3.1657 H         1 <0>         0.0000
     40 H6          3.9245   -1.9643   -4.0546 H         1 <0>         0.0000
     41 H7          2.8555    2.1972   -1.5873 H         1 <0>         0.0000
     42 H8          2.0674   -1.9357   -2.4438 H         1 <0>         0.0000
     43 H9          3.1145   -1.3535    0.0838 H         1 <0>         0.0000
     44 H10        -1.3323   -2.7960    1.6793 H         1 <0>         0.0000
     45 H11        -1.6719   -0.6290   -1.0462 H         1 <0>         0.0000
     46 H12        -2.3959   -1.0838    0.4931 H         1 <0>         0.0000
     47 H13        -2.4554    1.2742    0.4373 H         1 <0>         0.0000
     48 H14         0.0684    0.7076    2.0753 H         1 <0>         0.0000
     49 H15        -1.5873    0.4110    2.6293 H         1 <0>         0.0000
     50 H16        -1.0653    2.0652    2.2513 H         1 <0>         0.0000
     51 H17        -1.6461    4.7293   -3.0301 H         1 <0>         0.0000
     52 H18        -0.0522    5.4332   -2.6505 H         1 <0>         0.0000
     53 H19        -1.3572    5.4619   -1.4416 H         1 <0>         0.0000
     54 H20         4.3273   -5.0305    1.5933 H         1 <0>         0.0000
     55 H21         3.4455   -4.6384    0.0886 H         1 <0>         0.0000
     56 H22         2.5666   -5.3350    1.4854 H         1 <0>         0.0000
     57 H23         0.9518   -4.9435    4.4656 H         1 <0>         0.0000
     58 H24         0.6634   -3.1803    4.4131 H         1 <0>         0.0000
     59 H25         2.2394   -3.8443    3.8814 H         1 <0>         0.0000
     60 H26         0.3134    3.0954   -2.1626 H         1 <0>         0.0000
@<TRIPOS>BOND
     1    1   12 1
     2    1   28 3
     3    2    4 ar
     4    2   12 ar
     5    2   35 1
     6    3    5 ar
     7    3   12 ar
     8    3   36 1
     9    4   13 ar
    10    4   37 1
    11    5   13 ar
    12    5   38 1
    13    6    8 ar
    14    6   14 ar
    15    6   39 1
    16    7    9 ar
    17    7   14 ar
    18    7   40 1
    19    8   15 ar
    20    8   41 1
    21    9   15 ar
    22    9   42 1
    23   10   16 ar
    24   10   18 ar
    25   10   43 1
    26   11   17 ar
    27   11   19 ar
    28   11   44 1
    29   13   14 1
    30   15   20 1
    31   16   17 ar
    32   16   20 1
    33   17   22 1
    34   18   19 ar
    35   18   33 1
    36   19   34 1
    37   20   29 2
    38   21   30 am
    39   21   31 am
    40   21   32 2
    41   22   23 1
    42   22   45 1
    43   22   46 1
    44   23   24 1
    45   23   30 1
    46   23   47 1
    47   24   48 1
    48   24   49 1
    49   24   50 1
    50   25   31 1
    51   25   51 1
    52   25   52 1
    53   25   53 1
    54   26   33 1
    55   26   54 1
    56   26   55 1
    57   26   56 1
    58   27   34 1
    59   27   57 1
    60   27   58 1
    61   27   59 1
    62   29   30 1
    63   31   60 1
