@<TRIPOS>MOLECULE
*****
   65    67     0     0     0
SMALL
NO_CHARGES

@<TRIPOS>ATOM
      1 C1         -4.2164   -7.5768    5.9863 C.1       1 <0>         0.0000
      2 C2         -2.2620   -7.5616    4.5302 C.ar      1 <0>         0.0000
      3 C3         -1.0897   -6.9778    4.0556 C.ar      1 <0>         0.0000
      4 C4         -1.3818   -5.1413    5.6137 C.ar      1 <0>         0.0000
      5 C5         -3.0088   -6.9385    5.5409 C.ar      1 <0>         0.0000
      6 C6         -2.5553   -5.7180    6.0846 C.ar      1 <0>         0.0000
      7 C7         -0.6567   -5.7660    4.5941 C.ar      1 <0>         0.0000
      8 C8          1.7641   -5.8748    4.0856 C.2       1 <0>         0.0000
      9 C9          0.6968   -3.8562    3.6508 C.2       1 <0>         0.0000
     10 C10         0.2963    3.4194    0.2008 C.2       1 <0>         0.0000
     11 C11         2.2621    1.9549    0.2851 C.3       1 <0>         0.0000
     12 C12         0.2471    1.2343    1.4670 C.3       1 <0>         0.0000
     13 C13         3.0921    1.5422    1.4973 C.3       1 <0>         0.0000
     14 C14         1.1146    0.8285    2.6582 C.3       1 <0>         0.0000
     15 C15         2.8097   -4.8971    3.5502 C.3       1 <0>         0.0000
     16 C16         3.3720   -5.4414    2.2265 C.3       1 <0>         0.0000
     17 C17         3.9164   -4.6966    4.5950 C.3       1 <0>         0.0000
     18 C18        -3.1832    5.1863    0.3982 C.3       1 <0>         0.0000
     19 C19        -1.1599    3.6663    0.5961 C.3       1 <0>         0.0000
     20 C20        -1.7208    4.9596    0.0005 C.3       1 <0>         0.0000
     21 C21         2.7875   -1.3792    3.8997 C.3       1 <0>         0.0000
     22 C22         2.5425   -2.4358    2.8162 C.3       1 <0>         0.0000
     23 C23         3.2911   -0.0603    3.3016 C.3       1 <0>         0.0000
     24 C24        -3.3338   -5.0352    7.1876 C.3       1 <0>         0.0000
     25 N1         -5.1879   -8.1288    6.3142 N.1       1 <0>         0.0000
     26 N2          0.5547   -5.1846    4.1273 N.am      1 <0>         0.0000
     27 N3          2.0022   -3.6850    3.3489 N.pl3     1 <0>         0.0000
     28 N4          0.8980    2.2838    0.6904 N.am      1 <0>         0.0000
     29 N5          2.4523    0.4333    2.2097 N.3       1 <0>         0.0000
     30 O1          1.9503   -7.0321    4.4070 O.2       1 <0>         0.0000
     31 O2          0.9068    4.2119   -0.5206 O.2       1 <0>         0.0000
     32 F1         -2.7321   -3.8925    7.5911 F         1 <0>         0.0000
     33 F2         -4.5845   -4.7109    6.7875 F         1 <0>         0.0000
     34 F3         -3.4532   -5.8306    8.2769 F         1 <0>         0.0000
     35 S1         -0.5428   -2.7635    3.4756 S.2       1 <0>         0.0000
     36 H1         -2.6105   -8.5023    4.1171 H         1 <0>         0.0000
     37 H2         -0.5129   -7.4629    3.2764 H         1 <0>         0.0000
     38 H3         -1.0316   -4.2067    6.0313 H         1 <0>         0.0000
     39 H4          2.6900    2.8296   -0.2035 H         1 <0>         0.0000
     40 H5          2.2384    1.1262   -0.4368 H         1 <0>         0.0000
     41 H6          0.0803    0.3516    0.8331 H         1 <0>         0.0000
     42 H7         -0.7212    1.5727    1.8310 H         1 <0>         0.0000
     43 H8          4.0817    1.2179    1.1577 H         1 <0>         0.0000
     44 H9          3.2332    2.4193    2.1570 H         1 <0>         0.0000
     45 H10         1.1670    1.6702    3.3761 H         1 <0>         0.0000
     46 H11         0.6313   -0.0152    3.1562 H         1 <0>         0.0000
     47 H12         4.1538   -4.7840    1.8367 H         1 <0>         0.0000
     48 H13         2.5828   -5.5297    1.4744 H         1 <0>         0.0000
     49 H14         3.8054   -6.4294    2.4001 H         1 <0>         0.0000
     50 H15         4.6745   -4.0041    4.2181 H         1 <0>         0.0000
     51 H16         4.3940   -5.6567    4.8050 H         1 <0>         0.0000
     52 H17         3.5082   -4.2965    5.5270 H         1 <0>         0.0000
     53 H18        -3.2968    5.2570    1.4866 H         1 <0>         0.0000
     54 H19        -3.8245    4.3668    0.0520 H         1 <0>         0.0000
     55 H20        -3.5694    6.1145   -0.0358 H         1 <0>         0.0000
     56 H21        -1.2389    3.6971    1.6905 H         1 <0>         0.0000
     57 H22        -1.7712    2.8133    0.2739 H         1 <0>         0.0000
     58 H23        -1.6249    4.9236   -1.0889 H         1 <0>         0.0000
     59 H24        -1.1036    5.8023    0.3265 H         1 <0>         0.0000
     60 H25         3.5327   -1.7402    4.6167 H         1 <0>         0.0000
     61 H26         1.8616   -1.2272    4.4600 H         1 <0>         0.0000
     62 H27         1.8468   -2.0472    2.0714 H         1 <0>         0.0000
     63 H28         3.4750   -2.6713    2.2968 H         1 <0>         0.0000
     64 H29         4.2969   -0.2157    2.8922 H         1 <0>         0.0000
     65 H30         3.3926    0.6860    4.1125 H         1 <0>         0.0000
@<TRIPOS>BOND
     1    1    5 1
     2    1   25 3
     3    2    3 ar
     4    2    5 ar
     5    2   36 1
     6    3    7 ar
     7    3   37 1
     8    4    6 ar
     9    4    7 ar
    10    4   38 1
    11    5    6 ar
    12    6   24 1
    13    7   26 1
    14    8   15 1
    15    8   26 am
    16    8   30 2
    17    9   26 1
    18    9   27 1
    19    9   35 2
    20   10   19 1
    21   10   28 am
    22   10   31 2
    23   11   13 1
    24   11   28 1
    25   11   39 1
    26   11   40 1
    27   12   14 1
    28   12   28 1
    29   12   41 1
    30   12   42 1
    31   13   29 1
    32   13   43 1
    33   13   44 1
    34   14   29 1
    35   14   45 1
    36   14   46 1
    37   15   16 1
    38   15   17 1
    39   15   27 1
    40   16   47 1
    41   16   48 1
    42   16   49 1
    43   17   50 1
    44   17   51 1
    45   17   52 1
    46   18   20 1
    47   18   53 1
    48   18   54 1
    49   18   55 1
    50   19   20 1
    51   19   56 1
    52   19   57 1
    53   20   58 1
    54   20   59 1
    55   21   22 1
    56   21   23 1
    57   21   60 1
    58   21   61 1
    59   22   27 1
    60   22   62 1
    61   22   63 1
    62   23   29 1
    63   23   64 1
    64   23   65 1
    65   24   32 1
    66   24   33 1
    67   24   34 1
