@<TRIPOS>MOLECULE
*****
   25    25     0     0     0
SMALL
NO_CHARGES

@<TRIPOS>ATOM
      1 C1          4.6158    1.5700   -4.7247 C.2       1 <0>         0.0000
      2 C2          3.7985    0.6648   -4.1080 C.2       1 <0>         0.0000
      3 C3          5.5190   -0.6683   -4.5133 C.2       1 <0>         0.0000
      4 C4          1.3366    0.3339   -4.4827 C.2       1 <0>         0.0000
      5 C5         -0.9148   -0.3811   -4.5440 C.3       1 <0>         0.0000
      6 C6          7.6948   -1.4948   -2.2487 C.3       1 <0>         0.0000
      7 C7          2.4183    0.9260   -3.5860 C.3       1 <0>         0.0000
      8 N1          4.3304   -0.6064   -3.9781 N.2       1 <0>         0.0000
      9 N2          6.2386   -1.8692   -4.5945 N.pl3     1 <0>         0.0000
     10 O1          1.4505    0.1031   -5.6680 O.2       1 <0>         0.0000
     11 O2          8.1726   -3.3887   -4.0619 O.2       1 <0>         0.0000
     12 O3          8.6011   -0.9352   -4.6724 O.2       1 <0>         0.0000
     13 O4          0.1979    0.1316   -3.7788 O.3       1 <0>         0.0000
     14 S1          6.1072    0.8234   -5.2172 S.3       1 <0>         0.0000
     15 S2          7.8343   -1.9709   -3.9865 S.o2      1 <0>         0.0000
     16 H1          4.4325    2.6193   -4.9161 H         1 <0>         0.0000
     17 H2         -1.7349   -0.4796   -3.8331 H         1 <0>         0.0000
     18 H3         -0.6607   -1.3506   -4.9783 H         1 <0>         0.0000
     19 H4         -1.1784    0.3137   -5.3448 H         1 <0>         0.0000
     20 H5          8.7077   -1.4979   -1.8423 H         1 <0>         0.0000
     21 H6          7.2654   -0.4936   -2.1957 H         1 <0>         0.0000
     22 H7          7.0694   -2.2260   -1.7356 H         1 <0>         0.0000
     23 H8          2.3003    0.5203   -2.5780 H         1 <0>         0.0000
     24 H9          2.2305    2.0030   -3.5248 H         1 <0>         0.0000
     25 H10         5.6768   -2.6731   -4.3153 H         1 <0>         0.0000
@<TRIPOS>BOND
     1    1    2 2
     2    1   14 1
     3    1   16 1
     4    2    7 1
     5    2    8 1
     6    3    8 2
     7    3    9 1
     8    3   14 1
     9    4    7 1
    10    4   10 2
    11    4   13 1
    12    5   13 1
    13    5   17 1
    14    5   18 1
    15    5   19 1
    16    6   15 1
    17    6   20 1
    18    6   21 1
    19    6   22 1
    20    7   23 1
    21    7   24 1
    22    9   15 1
    23    9   25 1
    24   11   15 2
    25   12   15 2
