@<TRIPOS>MOLECULE
*****
   63    67     0     0     0
SMALL
NO_CHARGES

@<TRIPOS>ATOM
      1 C1          2.8311    4.3744    0.6138 C.ar      1 <0>         0.0000
      2 C2          4.5233    2.6526    0.6660 C.ar      1 <0>         0.0000
      3 C3          3.3259    4.8333   -0.6057 C.ar      1 <0>         0.0000
      4 C4          5.0291    3.1131   -0.5505 C.ar      1 <0>         0.0000
      5 C5          2.8654    5.7895    4.9322 C.ar      1 <0>         0.0000
      6 C6          1.0225    3.9965    3.8252 C.ar      1 <0>         0.0000
      7 C7          0.5677    4.9986    4.7241 C.ar      1 <0>         0.0000
      8 C8          3.4266    3.2849    1.2645 C.ar      1 <0>         0.0000
      9 C9          4.4299    4.2030   -1.1889 C.ar      1 <0>         0.0000
     10 C10         3.3225    4.8042    4.0619 C.ar      1 <0>         0.0000
     11 C11         2.3882    3.8881    3.5103 C.ar      1 <0>         0.0000
     12 C12         1.5158    5.8913    5.2704 C.ar      1 <0>         0.0000
     13 C13        -0.5906    3.2607    2.0295 C.2       1 <0>         0.0000
     14 C14         0.0472    3.0688    3.1915 C.2       1 <0>         0.0000
     15 C15        -0.8603    5.1910    5.0718 C.2       1 <0>         0.0000
     16 C16        -1.5710    2.1512    1.7286 C.3       1 <0>         0.0000
     17 C17        -0.3747    1.7644    3.8458 C.3       1 <0>         0.0000
     18 C18        -1.1586    6.5074    5.7723 C.3       1 <0>         0.0000
     19 C19        -1.1499    1.0366    2.7202 C.3       1 <0>         0.0000
     20 C20        -0.8235    7.0326    8.8175 C.3       1 <0>         0.0000
     21 C21        -0.1156    5.8797    8.0503 C.3       1 <0>         0.0000
     22 C22        -0.3494    8.0167    7.7094 C.3       1 <0>         0.0000
     23 C23        -0.0779    6.8044    6.7987 C.3       1 <0>         0.0000
     24 C24         5.6583    4.5604    5.0046 C.3       1 <0>         0.0000
     25 C25         5.2404    6.0295    2.9687 C.3       1 <0>         0.0000
     26 C26         2.8440    2.7781    2.5716 C.3       1 <0>         0.0000
     27 C27         4.8106    4.7660    3.7363 C.3       1 <0>         0.0000
     28 C28         5.0086    4.7378   -2.4688 C.3       1 <0>         0.0000
     29 O1         -1.7532    4.3836    4.8371 O.2       1 <0>         0.0000
     30 O2          1.1965    6.8953    6.1378 O.3       1 <0>         0.0000
     31 O3          3.8048    1.9032    3.1922 O.3       1 <0>         0.0000
     32 F1          4.0644    5.3020   -3.2639 F         1 <0>         0.0000
     33 F2          5.9438    5.7030   -2.2386 F         1 <0>         0.0000
     34 F3          5.6237    3.7741   -3.1987 F         1 <0>         0.0000
     35 H1          1.9852    4.8770    1.0718 H         1 <0>         0.0000
     36 H2          4.9861    1.8092    1.1657 H         1 <0>         0.0000
     37 H3          2.8573    5.6784   -1.1006 H         1 <0>         0.0000
     38 H4          5.8832    2.6206   -1.0052 H         1 <0>         0.0000
     39 H5          3.5509    6.5025    5.3793 H         1 <0>         0.0000
     40 H6         -0.4888    4.1478    1.4091 H         1 <0>         0.0000
     41 H7         -2.5950    2.4992    1.9241 H         1 <0>         0.0000
     42 H8         -1.5404    1.8200    0.6844 H         1 <0>         0.0000
     43 H9          0.4813    1.1831    4.2125 H         1 <0>         0.0000
     44 H10        -1.0093    1.9874    4.7108 H         1 <0>         0.0000
     45 H11        -1.1762    7.3127    5.0257 H         1 <0>         0.0000
     46 H12        -2.1458    6.4443    6.2347 H         1 <0>         0.0000
     47 H13        -2.0008    0.4643    3.0995 H         1 <0>         0.0000
     48 H14        -0.4815    0.3338    2.2112 H         1 <0>         0.0000
     49 H15        -0.4771    7.2330    9.8335 H         1 <0>         0.0000
     50 H16        -1.9101    6.9150    8.8342 H         1 <0>         0.0000
     51 H17         0.8967    5.7007    8.4216 H         1 <0>         0.0000
     52 H18        -0.6418    4.9262    7.9540 H         1 <0>         0.0000
     53 H19        -1.0565    8.7642    7.3389 H         1 <0>         0.0000
     54 H20         0.5916    8.5066    7.9729 H         1 <0>         0.0000
     55 H21         5.5651    5.4002    5.7012 H         1 <0>         0.0000
     56 H22         6.7160    4.4659    4.7366 H         1 <0>         0.0000
     57 H23         5.3588    3.6485    5.5308 H         1 <0>         0.0000
     58 H24         5.1029    6.9349    3.5695 H         1 <0>         0.0000
     59 H25         4.6637    6.1425    2.0461 H         1 <0>         0.0000
     60 H26         6.2998    5.9625    2.6989 H         1 <0>         0.0000
     61 H27         1.9617    2.1891    2.3020 H         1 <0>         0.0000
     62 H28         5.0035    3.9103    3.0947 H         1 <0>         0.0000
     63 H29         3.4013    1.5775    4.0119 H         1 <0>         0.0000
@<TRIPOS>BOND
     1    1    3 ar
     2    1    8 ar
     3    1   35 1
     4    2    4 ar
     5    2    8 ar
     6    2   36 1
     7    3    9 ar
     8    3   37 1
     9    4    9 ar
    10    4   38 1
    11    5   10 ar
    12    5   12 ar
    13    5   39 1
    14    6    7 ar
    15    6   11 ar
    16    6   14 1
    17    7   12 ar
    18    7   15 1
    19    8   26 1
    20    9   28 1
    21   10   11 ar
    22   10   27 1
    23   11   26 1
    24   12   30 1
    25   13   14 2
    26   13   16 1
    27   13   40 1
    28   14   17 1
    29   15   18 1
    30   15   29 2
    31   16   19 1
    32   16   41 1
    33   16   42 1
    34   17   19 1
    35   17   43 1
    36   17   44 1
    37   18   23 1
    38   18   45 1
    39   18   46 1
    40   19   47 1
    41   19   48 1
    42   20   22 1
    43   20   21 1
    44   20   49 1
    45   20   50 1
    46   21   23 1
    47   21   51 1
    48   21   52 1
    49   22   23 1
    50   22   53 1
    51   22   54 1
    52   23   30 1
    53   24   27 1
    54   24   55 1
    55   24   56 1
    56   24   57 1
    57   25   27 1
    58   25   58 1
    59   25   59 1
    60   25   60 1
    61   26   31 1
    62   26   61 1
    63   27   62 1
    64   28   32 1
    65   28   33 1
    66   28   34 1
    67   31   63 1
