@<TRIPOS>MOLECULE
*****
   67    69     0     0     0
SMALL
NO_CHARGES

@<TRIPOS>ATOM
      1 C1        -10.6388   -3.5009   -3.4788 C.1       1 <0>         0.0000
      2 C2         -9.8087   -2.7015   -1.3292 C.ar      1 <0>         0.0000
      3 C3         -8.9711   -2.8089   -0.2212 C.ar      1 <0>         0.0000
      4 C4         -8.0767   -4.8843   -1.1112 C.ar      1 <0>         0.0000
      5 C5         -9.7740   -3.6703   -2.3440 C.ar      1 <0>         0.0000
      6 C6         -8.8989   -4.7701   -2.2263 C.ar      1 <0>         0.0000
      7 C7         -8.1031   -3.8959   -0.1252 C.ar      1 <0>         0.0000
      8 C8         -7.7365   -4.0409    2.3410 C.2       1 <0>         0.0000
      9 C9         -5.8642   -4.1172    0.9934 C.2       1 <0>         0.0000
     10 C10        -0.0098   -6.4039   -2.5583 C.2       1 <0>         0.0000
     11 C11        -1.8499   -4.6923   -2.4390 C.3       1 <0>         0.0000
     12 C12        -1.6383   -6.4068   -0.7504 C.3       1 <0>         0.0000
     13 C13        -1.4325   -3.6069   -1.4384 C.3       1 <0>         0.0000
     14 C14        -1.1691   -5.3922    0.2899 C.3       1 <0>         0.0000
     15 C15        -6.5211   -4.2303    3.2504 C.3       1 <0>         0.0000
     16 C16        -6.6434   -5.5748    3.9838 C.3       1 <0>         0.0000
     17 C17        -6.4034   -3.0514    4.2252 C.3       1 <0>         0.0000
     18 C18         2.0567   -6.0429   -5.5844 C.3       1 <0>         0.0000
     19 C19         0.4276   -5.8374   -3.9110 C.3       1 <0>         0.0000
     20 C20        -3.2817   -2.9897    2.5782 C.3       1 <0>         0.0000
     21 C21        -1.7557   -3.1145    2.3956 C.3       1 <0>         0.0000
     22 C22        -4.0135   -4.3475    2.5998 C.3       1 <0>         0.0000
     23 C23        -1.2646   -2.9636    0.9542 C.3       1 <0>         0.0000
     24 C24        -8.8412   -5.8291   -3.3090 C.3       1 <0>         0.0000
     25 N1        -11.3490   -3.3229   -4.3834 N.1       1 <0>         0.0000
     26 N2         -7.2530   -4.0177    1.0187 N.am      1 <0>         0.0000
     27 N3         -5.4241   -4.2428    2.2585 N.pl3     1 <0>         0.0000
     28 N4         -1.2555   -5.9725   -2.0870 N.am      1 <0>         0.0000
     29 N5         -1.7358   -4.0242   -0.0149 N.4       1 <0>         0.0000
     30 O1         -8.8915   -3.9343    2.6784 O.2       1 <0>         0.0000
     31 O2          0.6524   -7.2121   -1.9311 O.2       1 <0>         0.0000
     32 O3          1.5936   -6.4892   -4.3126 O.3       1 <0>         0.0000
     33 F1         -7.9611   -6.8096   -2.9920 F         1 <0>         0.0000
     34 F2        -10.0415   -6.4095   -3.5025 F         1 <0>         0.0000
     35 F3         -8.4434   -5.3000   -4.4877 F         1 <0>         0.0000
     36 S1         -4.9346   -4.0689   -0.4100 S.2       1 <0>         0.0000
     37 H1        -10.4907   -1.8628   -1.4199 H         1 <0>         0.0000
     38 H2         -8.9997   -2.0586    0.5614 H         1 <0>         0.0000
     39 H3         -7.4143   -5.7349   -1.0141 H         1 <0>         0.0000
     40 H4         -2.9401   -4.7944   -2.4528 H         1 <0>         0.0000
     41 H5         -1.5525   -4.3742   -3.4375 H         1 <0>         0.0000
     42 H6         -1.1679   -7.3670   -0.5409 H         1 <0>         0.0000
     43 H7         -2.7262   -6.5270   -0.7108 H         1 <0>         0.0000
     44 H8         -0.3573   -3.4170   -1.4928 H         1 <0>         0.0000
     45 H9         -1.9730   -2.6749   -1.6185 H         1 <0>         0.0000
     46 H10        -1.4903   -5.6716    1.2932 H         1 <0>         0.0000
     47 H11        -0.0798   -5.3062    0.2767 H         1 <0>         0.0000
     48 H12        -5.7969   -5.7269    4.6593 H         1 <0>         0.0000
     49 H13        -6.6870   -6.4080    3.2771 H         1 <0>         0.0000
     50 H14        -7.5598   -5.5739    4.5783 H         1 <0>         0.0000
     51 H15        -5.5499   -3.1898    4.8950 H         1 <0>         0.0000
     52 H16        -7.3102   -2.9992    4.8321 H         1 <0>         0.0000
     53 H17        -6.2871   -2.1041    3.6915 H         1 <0>         0.0000
     54 H18         2.9620   -6.6107   -5.8022 H         1 <0>         0.0000
     55 H19         2.2967   -4.9696   -5.5685 H         1 <0>         0.0000
     56 H20         1.3117   -6.2321   -6.3701 H         1 <0>         0.0000
     57 H21         0.5967   -4.7482   -3.8136 H         1 <0>         0.0000
     58 H22        -0.3904   -5.9718   -4.6399 H         1 <0>         0.0000
     59 H23        -3.7006   -2.3703    1.7796 H         1 <0>         0.0000
     60 H24        -3.4935   -2.4659    3.5137 H         1 <0>         0.0000
     61 H25        -1.2616   -2.3038    2.9404 H         1 <0>         0.0000
     62 H26        -1.3763   -4.0364    2.8490 H         1 <0>         0.0000
     63 H27        -3.9414   -4.8001    3.5910 H         1 <0>         0.0000
     64 H28        -3.5649   -5.0584    1.9014 H         1 <0>         0.0000
     65 H29        -0.1723   -2.9728    0.9129 H         1 <0>         0.0000
     66 H30        -1.6115   -2.0103    0.5477 H         1 <0>         0.0000
     67 H31        -2.7861   -4.0819    0.0412 H         1 <0>         0.0000
@<TRIPOS>BOND
     1    1    5 1
     2    1   25 3
     3    2    3 ar
     4    2    5 ar
     5    2   37 1
     6    3    7 ar
     7    3   38 1
     8    4    6 ar
     9    4    7 ar
    10    4   39 1
    11    5    6 ar
    12    6   24 1
    13    7   26 1
    14    8   15 1
    15    8   26 am
    16    8   30 2
    17    9   26 1
    18    9   27 1
    19    9   36 2
    20   10   19 1
    21   10   28 am
    22   10   31 2
    23   11   13 1
    24   11   28 1
    25   11   40 1
    26   11   41 1
    27   12   14 1
    28   12   28 1
    29   12   42 1
    30   12   43 1
    31   13   29 1
    32   13   44 1
    33   13   45 1
    34   14   29 1
    35   14   46 1
    36   14   47 1
    37   15   16 1
    38   15   17 1
    39   15   27 1
    40   16   48 1
    41   16   49 1
    42   16   50 1
    43   17   51 1
    44   17   52 1
    45   17   53 1
    46   18   32 1
    47   18   54 1
    48   18   55 1
    49   18   56 1
    50   19   32 1
    51   19   57 1
    52   19   58 1
    53   20   21 1
    54   20   22 1
    55   20   59 1
    56   20   60 1
    57   21   23 1
    58   21   61 1
    59   21   62 1
    60   22   27 1
    61   22   63 1
    62   22   64 1
    63   23   29 1
    64   23   65 1
    65   23   66 1
    66   24   33 1
    67   24   34 1
    68   24   35 1
    69   29   67 1
