@<TRIPOS>MOLECULE
*****
   62    65     0     0     0
SMALL
NO_CHARGES

@<TRIPOS>ATOM
      1 C1          0.9451    4.9263    0.1285 C.ar      1 <0>         0.0000
      2 C2         -1.6919    1.5711   -1.8897 C.ar      1 <0>         0.0000
      3 C3          2.1790    5.3943   -0.3265 C.ar      1 <0>         0.0000
      4 C4         -2.4410    0.8981   -0.9165 C.ar      1 <0>         0.0000
      5 C5          2.0339    2.8793    0.8305 C.ar      1 <0>         0.0000
      6 C6         -0.5762   -0.6093   -0.5139 C.ar      1 <0>         0.0000
      7 C7          0.8683    3.6509    0.7039 C.ar      1 <0>         0.0000
      8 C8         -0.3924    1.1575   -2.1712 C.ar      1 <0>         0.0000
      9 C9          0.1508    0.0568   -1.4935 C.ar      1 <0>         0.0000
     10 C10         3.3548    4.6385   -0.2168 C.ar      1 <0>         0.0000
     11 C11         3.2789    3.3588    0.4012 C.ar      1 <0>         0.0000
     12 C12        -1.8713   -0.1692   -0.2101 C.ar      1 <0>         0.0000
     13 C13        -1.9803    1.9487    2.0606 C.2       1 <0>         0.0000
     14 C14        -2.5388    3.1115    1.6107 C.2       1 <0>         0.0000
     15 C15        -0.3946    3.1091    1.1908 C.2       1 <0>         0.0000
     16 C16         1.7201    3.7956   -4.0861 C.2       1 <0>         0.0000
     17 C17         1.5550   -0.2159   -1.9876 C.3       1 <0>         0.0000
     18 C18         1.9519    1.1277   -2.6404 C.3       1 <0>         0.0000
     19 C19         0.6174    1.7370   -3.1444 C.3       1 <0>         0.0000
     20 C20         4.6474    5.1791   -0.7826 C.3       1 <0>         0.0000
     21 C21        -3.9193    3.6589    1.5616 C.3       1 <0>         0.0000
     22 C22         4.2767    1.1419    0.7011 C.3       1 <0>         0.0000
     23 C23         5.4360    3.0996    1.4956 C.3       1 <0>         0.0000
     24 C24        -2.6535    0.7554    2.6721 C.3       1 <0>         0.0000
     25 C25         0.6022    3.2754   -3.1975 C.3       1 <0>         0.0000
     26 C26        -3.3958   -0.1475    1.6717 C.3       1 <0>         0.0000
     27 N1         -0.6129    1.9725    1.7938 N.2       1 <0>         0.0000
     28 N2          4.4591    2.5795    0.5323 N.pl3     1 <0>         0.0000
     29 O1          1.6927    3.7509   -5.2964 O.2       1 <0>         0.0000
     30 O2         -1.5296    3.8641    1.0445 O.3       1 <0>         0.0000
     31 O3          2.8143    4.2976   -3.4452 O.3       1 <0>         0.0000
     32 O4         -2.5247   -0.8605    0.7913 O.3       1 <0>         0.0000
     33 H1          0.0521    5.5331    0.0223 H         1 <0>         0.0000
     34 H2         -2.1353    2.4182   -2.4081 H         1 <0>         0.0000
     35 H3          2.2321    6.3716   -0.8013 H         1 <0>         0.0000
     36 H4         -3.4504    1.2290   -0.6990 H         1 <0>         0.0000
     37 H5          1.9417    1.9012    1.2868 H         1 <0>         0.0000
     38 H6         -0.1580   -1.4357    0.0542 H         1 <0>         0.0000
     39 H7          2.2384   -0.5300   -1.1927 H         1 <0>         0.0000
     40 H8          1.5413   -1.0218   -2.7337 H         1 <0>         0.0000
     41 H9          2.3742    1.7850   -1.8719 H         1 <0>         0.0000
     42 H10         2.6950    1.0237   -3.4353 H         1 <0>         0.0000
     43 H11         0.4146    1.3681   -4.1588 H         1 <0>         0.0000
     44 H12         5.2054    5.7603   -0.0389 H         1 <0>         0.0000
     45 H13         5.2936    4.3657   -1.1222 H         1 <0>         0.0000
     46 H14         4.4520    5.8445   -1.6281 H         1 <0>         0.0000
     47 H15        -3.9647    4.6701    1.9802 H         1 <0>         0.0000
     48 H16        -4.2938    3.7081    0.5317 H         1 <0>         0.0000
     49 H17        -4.5928    3.0195    2.1373 H         1 <0>         0.0000
     50 H18         5.2440    0.6499    0.5602 H         1 <0>         0.0000
     51 H19         3.5886    0.7605   -0.0546 H         1 <0>         0.0000
     52 H20         3.8972    0.8596    1.6979 H         1 <0>         0.0000
     53 H21         6.3955    2.5938    1.3478 H         1 <0>         0.0000
     54 H22         5.1099    2.9340    2.5363 H         1 <0>         0.0000
     55 H23         5.5917    4.1684    1.3574 H         1 <0>         0.0000
     56 H24        -1.9010    0.1581    3.1940 H         1 <0>         0.0000
     57 H25        -3.3888    1.0802    3.4191 H         1 <0>         0.0000
     58 H26        -0.3404    3.6186   -3.6326 H         1 <0>         0.0000
     59 H27         0.6702    3.6736   -2.1816 H         1 <0>         0.0000
     60 H28        -3.9265   -0.9302    2.2202 H         1 <0>         0.0000
     61 H29        -4.1431    0.4272    1.1124 H         1 <0>         0.0000
     62 H30         2.6772    4.2664   -2.4796 H         1 <0>         0.0000
@<TRIPOS>BOND
     1    1    3 ar
     2    1    7 ar
     3    1   33 1
     4    2    4 ar
     5    2    8 ar
     6    2   34 1
     7    3   10 ar
     8    3   35 1
     9    4   12 ar
    10    4   36 1
    11    5    7 ar
    12    5   11 ar
    13    5   37 1
    14    6    9 ar
    15    6   12 ar
    16    6   38 1
    17    7   15 1
    18    8    9 ar
    19    8   19 1
    20    9   17 1
    21   10   11 ar
    22   10   20 1
    23   11   28 1
    24   12   32 1
    25   13   14 2
    26   13   24 1
    27   13   27 1
    28   14   21 1
    29   14   30 1
    30   15   27 2
    31   15   30 1
    32   16   25 1
    33   16   29 2
    34   16   31 1
    35   17   18 1
    36   17   39 1
    37   17   40 1
    38   18   19 1
    39   18   41 1
    40   18   42 1
    41   19   25 1
    42   19   43 1
    43   20   44 1
    44   20   45 1
    45   20   46 1
    46   21   47 1
    47   21   48 1
    48   21   49 1
    49   22   28 1
    50   22   50 1
    51   22   51 1
    52   22   52 1
    53   23   28 1
    54   23   53 1
    55   23   54 1
    56   23   55 1
    57   24   26 1
    58   24   56 1
    59   24   57 1
    60   25   58 1
    61   25   59 1
    62   26   32 1
    63   26   60 1
    64   26   61 1
    65   31   62 1
