@<TRIPOS>MOLECULE
*****
   62    65     0     0     0
SMALL
NO_CHARGES

@<TRIPOS>ATOM
      1 C1         -5.1354   -3.7896   -5.1354 C.ar      1 <0>         0.0000
      2 C2         -5.4599   -2.1322   -3.3896 C.ar      1 <0>         0.0000
      3 C3         -3.8084   -3.3867   -5.2787 C.ar      1 <0>         0.0000
      4 C4         -4.1428   -1.7155   -3.5341 C.ar      1 <0>         0.0000
      5 C5         -9.0753   -5.4602   -1.4778 C.ar      1 <0>         0.0000
      6 C6         -5.9557   -3.1991   -4.1594 C.ar      1 <0>         0.0000
      7 C7         -3.3160   -2.3696   -4.4557 C.ar      1 <0>         0.0000
      8 C8         -8.2252   -5.4121   -0.3827 C.ar      1 <0>         0.0000
      9 C9         -7.0063   -4.7065   -0.5326 C.ar      1 <0>         0.0000
     10 C10        -7.6147   -4.2335   -2.6932 C.ar      1 <0>         0.0000
     11 C11        -3.8894   -4.6932   -0.7996 C.3       1 <0>         0.0000
     12 C12        -4.0261   -3.7478    1.5219 C.3       1 <0>         0.0000
     13 C13        -2.6264   -3.8746   -1.0902 C.3       1 <0>         0.0000
     14 C14        -2.7338   -2.9486    1.2732 C.3       1 <0>         0.0000
     15 C15         1.7689   -2.8780   -0.9183 C.3       1 <0>         0.0000
     16 C16         0.5959   -0.6916   -0.5826 C.3       1 <0>         0.0000
     17 C17         0.4212   -3.5902   -0.8998 C.3       1 <0>         0.0000
     18 C18        -0.7415   -1.4206   -0.5411 C.3       1 <0>         0.0000
     19 C19        -4.7840   -3.9518    0.2066 C.3       1 <0>         0.0000
     20 C20        -1.8613   -3.6262    0.2078 C.3       1 <0>         0.0000
     21 C21         1.6293   -1.4355   -1.4245 C.3       1 <0>         0.0000
     22 N1         -8.7833   -4.8848   -2.6578 N.ar      1 <0>         0.0000
     23 N2         -6.7386   -4.0937   -1.6952 N.ar      1 <0>         0.0000
     24 N3         -1.2052   -1.8374   -6.0506 N.pl3     1 <0>         0.0000
     25 N4         -7.2584   -3.6803   -3.9237 N.pl3     1 <0>         0.0000
     26 N5         -6.0582   -4.6221    0.4413 N.pl3     1 <0>         0.0000
     27 N6         -0.5645   -2.8372   -0.0226 N.4       1 <0>         0.0000
     28 O1         -1.3930   -0.7581   -3.6617 O.2       1 <0>         0.0000
     29 O2         -0.8128   -3.1878   -3.9769 O.2       1 <0>         0.0000
     30 O3          2.8472   -0.7125   -1.2974 O.3       1 <0>         0.0000
     31 S1         -1.5770   -2.0066   -4.4241 S.o2      1 <0>         0.0000
     32 Br1        -8.6601   -6.2863    1.2597 Br        1 <0>         0.0000
     33 H1         -5.5209   -4.6015   -5.7463 H         1 <0>         0.0000
     34 H2         -6.1139   -1.6466   -2.6752 H         1 <0>         0.0000
     35 H3         -3.1603   -3.8722   -6.0012 H         1 <0>         0.0000
     36 H4         -3.7541   -0.8876   -2.9501 H         1 <0>         0.0000
     37 H5        -10.0225   -5.9913   -1.4152 H         1 <0>         0.0000
     38 H6         -4.4337   -4.8457   -1.7312 H         1 <0>         0.0000
     39 H7         -3.6274   -5.6807   -0.3986 H         1 <0>         0.0000
     40 H8         -3.7860   -4.7218    1.9680 H         1 <0>         0.0000
     41 H9         -4.6458   -3.2049    2.2422 H         1 <0>         0.0000
     42 H10        -2.0111   -4.3899   -1.8296 H         1 <0>         0.0000
     43 H11        -2.9257   -2.9217   -1.5339 H         1 <0>         0.0000
     44 H12        -3.0179   -1.9446    0.9442 H         1 <0>         0.0000
     45 H13        -2.1781   -2.8390    2.2127 H         1 <0>         0.0000
     46 H14         2.2231   -2.8639    0.0807 H         1 <0>         0.0000
     47 H15         2.4393   -3.4531   -1.5657 H         1 <0>         0.0000
     48 H16         0.4239    0.3026   -1.0028 H         1 <0>         0.0000
     49 H17         0.9973   -0.5488    0.4289 H         1 <0>         0.0000
     50 H18        -0.0133   -3.6292   -1.8990 H         1 <0>         0.0000
     51 H19         0.4970   -4.6033   -0.4982 H         1 <0>         0.0000
     52 H20        -1.4406   -0.9110    0.1200 H         1 <0>         0.0000
     53 H21        -1.1752   -1.4901   -1.5363 H         1 <0>         0.0000
     54 H22        -5.0144   -2.9688   -0.2211 H         1 <0>         0.0000
     55 H23        -1.5110   -4.5864    0.6033 H         1 <0>         0.0000
     56 H24         1.2855   -1.4525   -2.4682 H         1 <0>         0.0000
     57 H25        -1.4059   -0.8952   -6.3875 H         1 <0>         0.0000
     58 H26        -0.2304   -2.0923   -6.2125 H         1 <0>         0.0000
     59 H27        -7.7659   -4.0877   -4.7015 H         1 <0>         0.0000
     60 H28        -6.2140   -5.1396    1.2972 H         1 <0>         0.0000
     61 H29        -0.1249   -2.7504    0.9006 H         1 <0>         0.0000
     62 H30         3.4798   -1.0277   -1.9624 H         1 <0>         0.0000
@<TRIPOS>BOND
     1    1    3 ar
     2    1    6 ar
     3    1   33 1
     4    2    4 ar
     5    2    6 ar
     6    2   34 1
     7    3    7 ar
     8    3   35 1
     9    4    7 ar
    10    4   36 1
    11    5    8 ar
    12    5   22 ar
    13    5   37 1
    14    6   25 1
    15    7   31 1
    16    8    9 ar
    17    8   32 1
    18    9   23 ar
    19    9   26 1
    20   10   22 ar
    21   10   23 ar
    22   10   25 1
    23   11   13 1
    24   11   19 1
    25   11   38 1
    26   11   39 1
    27   12   14 1
    28   12   19 1
    29   12   40 1
    30   12   41 1
    31   13   20 1
    32   13   42 1
    33   13   43 1
    34   14   20 1
    35   14   44 1
    36   14   45 1
    37   15   17 1
    38   15   21 1
    39   15   46 1
    40   15   47 1
    41   16   18 1
    42   16   21 1
    43   16   48 1
    44   16   49 1
    45   17   27 1
    46   17   50 1
    47   17   51 1
    48   18   27 1
    49   18   52 1
    50   18   53 1
    51   19   26 1
    52   19   54 1
    53   20   27 1
    54   20   55 1
    55   21   30 1
    56   21   56 1
    57   24   31 1
    58   24   57 1
    59   24   58 1
    60   25   59 1
    61   26   60 1
    62   27   61 1
    63   28   31 2
    64   29   31 2
    65   30   62 1
