@<TRIPOS>MOLECULE
*****
   61    64     0     0     0
SMALL
NO_CHARGES

@<TRIPOS>ATOM
      1 C1         -7.2032   -1.0762    7.9947 C.ar      1 <0>         0.0000
      2 C2         -9.2559   -2.3431    7.6803 C.ar      1 <0>         0.0000
      3 C3         -7.7458   -0.4469    9.1070 C.ar      1 <0>         0.0000
      4 C4         -9.7974   -1.7075    8.7959 C.ar      1 <0>         0.0000
      5 C5         -9.2034   -5.0786    4.4557 C.ar      1 <0>         0.0000
      6 C6         -7.9447   -2.0339    7.2689 C.ar      1 <0>         0.0000
      7 C7         -9.0450   -0.7718    9.5070 C.ar      1 <0>         0.0000
      8 C8         -8.3269   -5.4302    3.4513 C.ar      1 <0>         0.0000
      9 C9         -7.0699   -4.7589    3.3974 C.ar      1 <0>         0.0000
     10 C10        -7.7153   -3.5725    5.2617 C.ar      1 <0>         0.0000
     11 C11        -2.5460   -4.4692    1.3175 C.3       1 <0>         0.0000
     12 C12        -3.7070   -2.2536    1.4587 C.3       1 <0>         0.0000
     13 C13        -3.8936   -5.1778    1.5110 C.3       1 <0>         0.0000
     14 C14        -5.0576   -2.9577    1.6271 C.3       1 <0>         0.0000
     15 C15         1.0316   -2.3888    0.1601 C.3       1 <0>         0.0000
     16 C16        -0.2812   -0.3551   -0.4015 C.3       1 <0>         0.0000
     17 C17        -0.2703   -3.1972    0.1445 C.3       1 <0>         0.0000
     18 C18        -1.5342   -1.2318   -0.4008 C.3       1 <0>         0.0000
     19 C19        -2.6974   -3.0915    0.6484 C.3       1 <0>         0.0000
     20 C20        -4.8799   -4.3214    2.3045 C.3       1 <0>         0.0000
     21 C21         0.9472   -1.1760   -0.7641 C.3       1 <0>         0.0000
     22 N1         -8.9200   -4.1433    5.3821 N.ar      1 <0>         0.0000
     23 N2         -6.7870   -3.8271    4.3194 N.ar      1 <0>         0.0000
     24 N3         -1.4149   -2.3637    0.5308 N.3       1 <0>         0.0000
     25 N4         -9.2851   -1.0008   12.2264 N.pl3     1 <0>         0.0000
     26 N5         -7.3116   -2.6065    6.1636 N.pl3     1 <0>         0.0000
     27 N6         -6.1437   -5.0426    2.4525 N.pl3     1 <0>         0.0000
     28 O1         -9.0312    1.2866   11.1570 O.2       1 <0>         0.0000
     29 O2        -11.2048   -0.0532   10.8346 O.2       1 <0>         0.0000
     30 O3          2.0930   -0.3219   -0.6577 O.3       1 <0>         0.0000
     31 S1         -9.7436    0.0218   10.9420 S.o2      1 <0>         0.0000
     32 Br1        -8.7834   -6.7788    2.1690 Br        1 <0>         0.0000
     33 H1         -6.1947   -0.8222    7.6755 H         1 <0>         0.0000
     34 H2         -9.8310   -3.0674    7.1218 H         1 <0>         0.0000
     35 H3         -7.1788    0.3011    9.6516 H         1 <0>         0.0000
     36 H4        -10.8150   -1.9269    9.1039 H         1 <0>         0.0000
     37 H5        -10.1764   -5.5593    4.5322 H         1 <0>         0.0000
     38 H6         -2.0537   -4.3405    2.2904 H         1 <0>         0.0000
     39 H7         -1.9083   -5.1237    0.7183 H         1 <0>         0.0000
     40 H8         -3.8753   -1.2816    0.9895 H         1 <0>         0.0000
     41 H9         -3.2622   -2.0526    2.4414 H         1 <0>         0.0000
     42 H10        -4.3279   -5.4039    0.5261 H         1 <0>         0.0000
     43 H11        -3.7383   -6.1361    2.0188 H         1 <0>         0.0000
     44 H12        -5.7362   -2.3403    2.2227 H         1 <0>         0.0000
     45 H13        -5.5311   -3.1079    0.6474 H         1 <0>         0.0000
     46 H14         1.2280   -2.0382    1.1794 H         1 <0>         0.0000
     47 H15         1.8623   -3.0433   -0.1362 H         1 <0>         0.0000
     48 H16        -0.4033    0.4698   -1.1114 H         1 <0>         0.0000
     49 H17        -0.1332    0.0779    0.5938 H         1 <0>         0.0000
     50 H18        -0.4162   -3.6477   -0.8589 H         1 <0>         0.0000
     51 H19        -0.1628   -4.0186    0.8530 H         1 <0>         0.0000
     52 H20        -2.3885   -0.6166   -0.1161 H         1 <0>         0.0000
     53 H21        -1.7335   -1.5959   -1.4293 H         1 <0>         0.0000
     54 H22        -3.1227   -3.2661   -0.3614 H         1 <0>         0.0000
     55 H23        -4.4862   -4.1591    3.3127 H         1 <0>         0.0000
     56 H24         0.8432   -1.5275   -1.8043 H         1 <0>         0.0000
     57 H25        -8.7759   -0.4499   12.9166 H         1 <0>         0.0000
     58 H26       -10.1205   -1.4142   12.6389 H         1 <0>         0.0000
     59 H27        -6.3782   -2.2700    5.9613 H         1 <0>         0.0000
     60 H28        -6.4185   -5.6866    1.7213 H         1 <0>         0.0000
     61 H29         2.8812   -0.8501   -0.8611 H         1 <0>         0.0000
@<TRIPOS>BOND
     1    1    3 ar
     2    1    6 ar
     3    1   33 1
     4    2    4 ar
     5    2    6 ar
     6    2   34 1
     7    3    7 ar
     8    3   35 1
     9    4    7 ar
    10    4   36 1
    11    5    8 ar
    12    5   22 ar
    13    5   37 1
    14    6   26 1
    15    7   31 1
    16    8    9 ar
    17    8   32 1
    18    9   23 ar
    19    9   27 1
    20   10   22 ar
    21   10   23 ar
    22   10   26 1
    23   11   13 1
    24   11   19 1
    25   11   38 1
    26   11   39 1
    27   12   14 1
    28   12   19 1
    29   12   40 1
    30   12   41 1
    31   13   20 1
    32   13   42 1
    33   13   43 1
    34   14   20 1
    35   14   44 1
    36   14   45 1
    37   15   17 1
    38   15   21 1
    39   15   46 1
    40   15   47 1
    41   16   18 1
    42   16   21 1
    43   16   48 1
    44   16   49 1
    45   17   24 1
    46   17   50 1
    47   17   51 1
    48   18   24 1
    49   18   52 1
    50   18   53 1
    51   19   24 1
    52   19   54 1
    53   20   27 1
    54   20   55 1
    55   21   30 1
    56   21   56 1
    57   25   31 1
    58   25   57 1
    59   25   58 1
    60   26   59 1
    61   27   60 1
    62   28   31 2
    63   29   31 2
    64   30   61 1
