@<TRIPOS>MOLECULE
*****
   66    70     0     0     0
SMALL
NO_CHARGES

@<TRIPOS>ATOM
      1 C1         -7.5523    4.9253   -5.4342 C.1       1 <0>         0.0000
      2 C2         -8.4928    5.6267   -5.7584 C.1       1 <0>         0.0000
      3 C3         -0.5109   -1.3281   -2.2492 C.ar      1 <0>         0.0000
      4 C4          0.7505   -0.7487   -2.0894 C.ar      1 <0>         0.0000
      5 C5         -5.9201    3.1523   -5.9826 C.ar      1 <0>         0.0000
      6 C6         -1.6142   -0.5109   -2.5000 C.ar      1 <0>         0.0000
      7 C7          0.9001    0.6372   -2.1999 C.ar      1 <0>         0.0000
      8 C8         -4.8528    2.3424   -5.6404 C.ar      1 <0>         0.0000
      9 C9         -5.8735    4.1947   -3.7918 C.ar      1 <0>         0.0000
     10 C10        -6.4501    4.0973   -5.0618 C.ar      1 <0>         0.0000
     11 C11        -4.7941    3.3715   -3.4412 C.ar      1 <0>         0.0000
     12 C12        -1.4695    0.8783   -2.5742 C.ar      1 <0>         0.0000
     13 C13        -0.1978    1.4723   -2.4462 C.ar      1 <0>         0.0000
     14 C14        -4.2678    2.4368   -4.3587 C.ar      1 <0>         0.0000
     15 C15        -4.2168    3.4527   -2.0987 C.2       1 <0>         0.0000
     16 C16        -2.6751    1.7139   -2.8599 C.2       1 <0>         0.0000
     17 C17        -4.0895    1.0211    2.8437 C.3       1 <0>         0.0000
     18 C18       -10.6637    6.8016   -5.0603 C.3       1 <0>         0.0000
     19 C19        -9.7093    7.8720   -5.5157 C.3       1 <0>         0.0000
     20 C20        -3.1827    1.8430    1.9203 C.3       1 <0>         0.0000
     21 C21        -4.2179   -0.4200    2.3432 C.3       1 <0>         0.0000
     22 C22        -3.7903    0.2569    0.0728 C.3       1 <0>         0.0000
     23 C23        -9.6064    6.4698   -6.1111 C.3       1 <0>         0.0000
     24 C24        -3.6582    1.7323    0.4660 C.3       1 <0>         0.0000
     25 C25        -0.0113    2.9646   -2.5985 C.3       1 <0>         0.0000
     26 C26        -3.9446   -2.7578    0.2425 C.3       1 <0>         0.0000
     27 C27        -6.0332   -1.6907   -0.7188 C.3       1 <0>         0.0000
     28 C28        -2.6905    2.4811   -0.4589 C.3       1 <0>         0.0000
     29 C29        -5.1116   -1.7842    0.5042 C.3       1 <0>         0.0000
     30 N1         -3.1857    1.6317   -4.0523 N.2       1 <0>         0.0000
     31 N2         -3.1651    2.5430   -1.8571 N.am      1 <0>         0.0000
     32 N3         -4.7117   -0.4417    0.9664 N.3       1 <0>         0.0000
     33 O1         -4.5992    4.2190   -1.2148 O.2       1 <0>         0.0000
     34 H1         -0.6356   -2.4056   -2.1829 H         1 <0>         0.0000
     35 H2          1.6188   -1.3729   -1.8945 H         1 <0>         0.0000
     36 H3         -6.3689    3.0773   -6.9689 H         1 <0>         0.0000
     37 H4         -2.5984   -0.9472   -2.6414 H         1 <0>         0.0000
     38 H5          1.8890    1.0797   -2.1043 H         1 <0>         0.0000
     39 H6         -4.4398    1.6239   -6.3421 H         1 <0>         0.0000
     40 H7         -6.2532    4.8999   -3.0600 H         1 <0>         0.0000
     41 H8         -3.6943    1.0210    3.8662 H         1 <0>         0.0000
     42 H9         -5.0874    1.4735    2.8744 H         1 <0>         0.0000
     43 H10       -10.5209    6.3760   -4.0727 H         1 <0>         0.0000
     44 H11       -11.6949    6.8475   -5.3977 H         1 <0>         0.0000
     45 H12       -10.0817    8.6570   -6.1671 H         1 <0>         0.0000
     46 H13        -8.9183    8.1735   -4.8372 H         1 <0>         0.0000
     47 H14        -3.1641    2.8931    2.2346 H         1 <0>         0.0000
     48 H15        -2.1515    1.4672    1.9944 H         1 <0>         0.0000
     49 H16        -3.2341   -0.9208    2.4404 H         1 <0>         0.0000
     50 H17        -4.9238   -0.9720    2.9735 H         1 <0>         0.0000
     51 H18        -4.1713    0.1857   -0.9487 H         1 <0>         0.0000
     52 H19        -2.7836   -0.2017    0.0762 H         1 <0>         0.0000
     53 H20        -9.9664    6.3565   -7.1306 H         1 <0>         0.0000
     54 H21        -4.6448    2.1985    0.3880 H         1 <0>         0.0000
     55 H22        -0.5172    3.3359   -3.4954 H         1 <0>         0.0000
     56 H23        -0.4208    3.5177   -1.7460 H         1 <0>         0.0000
     57 H24         1.0489    3.2179   -2.6777 H         1 <0>         0.0000
     58 H25        -3.3412   -2.4388   -0.6138 H         1 <0>         0.0000
     59 H26        -3.2815   -2.8389    1.1097 H         1 <0>         0.0000
     60 H27        -4.3289   -3.7597    0.0219 H         1 <0>         0.0000
     61 H28        -5.4954   -1.3721   -1.6182 H         1 <0>         0.0000
     62 H29        -6.8406   -0.9767   -0.5326 H         1 <0>         0.0000
     63 H30        -6.4737   -2.6695   -0.9364 H         1 <0>         0.0000
     64 H31        -1.7147    1.9983   -0.4462 H         1 <0>         0.0000
     65 H32        -2.5789    3.5100   -0.1124 H         1 <0>         0.0000
     66 H33        -5.7107   -2.1995    1.3240 H         1 <0>         0.0000
@<TRIPOS>BOND
     1    1    2 3
     2    1   10 1
     3    2   23 1
     4    3    4 ar
     5    3    6 ar
     6    3   34 1
     7    4    7 ar
     8    4   35 1
     9    5    8 ar
    10    5   10 ar
    11    5   36 1
    12    6   12 ar
    13    6   37 1
    14    7   13 ar
    15    7   38 1
    16    8   14 ar
    17    8   39 1
    18    9   10 ar
    19    9   11 ar
    20    9   40 1
    21   11   14 ar
    22   11   15 1
    23   12   13 ar
    24   12   16 1
    25   13   25 1
    26   14   30 1
    27   15   31 am
    28   15   33 2
    29   16   30 2
    30   16   31 1
    31   17   20 1
    32   17   21 1
    33   17   41 1
    34   17   42 1
    35   18   19 1
    36   18   23 1
    37   18   43 1
    38   18   44 1
    39   19   23 1
    40   19   45 1
    41   19   46 1
    42   20   24 1
    43   20   47 1
    44   20   48 1
    45   21   32 1
    46   21   49 1
    47   21   50 1
    48   22   24 1
    49   22   32 1
    50   22   51 1
    51   22   52 1
    52   23   53 1
    53   24   28 1
    54   24   54 1
    55   25   55 1
    56   25   56 1
    57   25   57 1
    58   26   29 1
    59   26   58 1
    60   26   59 1
    61   26   60 1
    62   27   29 1
    63   27   61 1
    64   27   62 1
    65   27   63 1
    66   28   31 1
    67   28   64 1
    68   28   65 1
    69   29   32 1
    70   29   66 1
