@<TRIPOS>MOLECULE
*****
   26    27     0     0     0
SMALL
NO_CHARGES

@<TRIPOS>ATOM
      1 C1         -0.2755   -0.7264    0.2972 C.ar      1 <0>         0.0000
      2 C2          0.0420   -1.9880   -0.2089 C.ar      1 <0>         0.0000
      3 C3         -0.9799   -0.6134    1.4976 C.ar      1 <0>         0.0000
      4 C4         -1.0613   -3.0180    1.6863 C.ar      1 <0>         0.0000
      5 C5         -0.3495   -3.1449    0.4741 C.ar      1 <0>         0.0000
      6 C6         -1.3747   -1.7497    2.2169 C.ar      1 <0>         0.0000
      7 C7         -1.4521   -4.2573    2.4512 C.2       1 <0>         0.0000
      8 C8         -0.0065   -4.5130   -0.0784 C.3       1 <0>         0.0000
      9 C9         -1.2340   -5.2757   -0.6217 C.3       1 <0>         0.0000
     10 C10        -2.4458   -5.1323    0.3134 C.3       1 <0>         0.0000
     11 C11        -2.1182   -1.5878    3.5232 C.3       1 <0>         0.0000
     12 N1         -2.0916   -5.2301    1.7273 N.am      1 <0>         0.0000
     13 O1         -1.2167   -4.3983    3.6531 O.2       1 <0>         0.0000
     14 H1          0.0276    0.1684   -0.2408 H         1 <0>         0.0000
     15 H2          0.5999   -2.0785   -1.1383 H         1 <0>         0.0000
     16 H3         -1.2256    0.3715    1.8873 H         1 <0>         0.0000
     17 H4          0.7401   -4.4147   -0.8719 H         1 <0>         0.0000
     18 H5          0.4556   -5.1149    0.7111 H         1 <0>         0.0000
     19 H6         -1.5156   -4.8917   -1.6095 H         1 <0>         0.0000
     20 H7         -0.9683   -6.3318   -0.7471 H         1 <0>         0.0000
     21 H8         -2.9274   -4.1652    0.1420 H         1 <0>         0.0000
     22 H9         -3.1929   -5.9012    0.0998 H         1 <0>         0.0000
     23 H10        -3.0056   -2.2263    3.5676 H         1 <0>         0.0000
     24 H11        -1.4866   -1.8786    4.3665 H         1 <0>         0.0000
     25 H12        -2.4332   -0.5493    3.6577 H         1 <0>         0.0000
     26 H13        -2.2987   -6.0765    2.2445 H         1 <0>         0.0000
@<TRIPOS>BOND
     1    1    2 ar
     2    1    3 ar
     3    1   14 1
     4    2    5 ar
     5    2   15 1
     6    3    6 ar
     7    3   16 1
     8    4    5 ar
     9    4    6 ar
    10    4    7 1
    11    5    8 1
    12    6   11 1
    13    7   12 am
    14    7   13 2
    15    8    9 1
    16    8   17 1
    17    8   18 1
    18    9   10 1
    19    9   19 1
    20    9   20 1
    21   10   12 1
    22   10   21 1
    23   10   22 1
    24   11   23 1
    25   11   24 1
    26   11   25 1
    27   12   26 1
