@<TRIPOS>MOLECULE
*****
   23    24     0     0     0
SMALL
NO_CHARGES

@<TRIPOS>ATOM
      1 C1         -0.9343   -0.8929    1.7731 C.ar      1 <0>         0.0000
      2 C2         -0.2928   -0.9207    0.5307 C.ar      1 <0>         0.0000
      3 C3         -1.2746   -2.0931    2.3977 C.ar      1 <0>         0.0000
      4 C4          0.0102   -2.1454   -0.0709 C.ar      1 <0>         0.0000
      5 C5         -1.0003   -3.3214    1.7814 C.ar      1 <0>         0.0000
      6 C6         -0.3346   -3.3600    0.5366 C.ar      1 <0>         0.0000
      7 C7         -1.4128   -4.5629    2.5243 C.2       1 <0>         0.0000
      8 C8          0.0437   -4.6756   -0.1094 C.3       1 <0>         0.0000
      9 C9         -1.1625   -5.4806   -0.6326 C.3       1 <0>         0.0000
     10 C10        -2.3239   -5.4750    0.3720 C.3       1 <0>         0.0000
     11 N1         -1.8738   -5.6090    1.7598 N.am      1 <0>         0.0000
     12 O1         -1.3513   -4.6394    3.7526 O.2       1 <0>         0.0000
     13 H1         -1.1607    0.0556    2.2529 H         1 <0>         0.0000
     14 H2         -0.0177    0.0077    0.0365 H         1 <0>         0.0000
     15 H3         -1.7534   -2.0999    3.3722 H         1 <0>         0.0000
     16 H4          0.5341   -2.1610   -1.0242 H         1 <0>         0.0000
     17 H5          0.7445   -4.4951   -0.9299 H         1 <0>         0.0000
     18 H6          0.5730   -5.2903    0.6260 H         1 <0>         0.0000
     19 H7         -1.5235   -5.0584   -1.5779 H         1 <0>         0.0000
     20 H8         -0.8376   -6.5071   -0.8368 H         1 <0>         0.0000
     21 H9         -2.8955   -4.5469    0.2663 H         1 <0>         0.0000
     22 H10        -3.0129   -6.2976    0.1638 H         1 <0>         0.0000
     23 H11        -2.2127   -6.3895    2.3101 H         1 <0>         0.0000
@<TRIPOS>BOND
     1    1    2 ar
     2    1    3 ar
     3    1   13 1
     4    2    4 ar
     5    2   14 1
     6    3    5 ar
     7    3   15 1
     8    4    6 ar
     9    4   16 1
    10    5    6 ar
    11    5    7 1
    12    6    8 1
    13    7   11 am
    14    7   12 2
    15    8    9 1
    16    8   17 1
    17    8   18 1
    18    9   10 1
    19    9   19 1
    20    9   20 1
    21   10   11 1
    22   10   21 1
    23   10   22 1
    24   11   23 1
