@<TRIPOS>MOLECULE
*****
   29    30     0     0     0
SMALL
NO_CHARGES

@<TRIPOS>ATOM
      1 C1          1.0202   -6.2185    4.9311 C.ar      1 <0>         0.0000
      2 C2          1.9244   -1.0374   -0.0528 C.ar      1 <0>         0.0000
      3 C3          2.7960   -1.8263    0.7010 C.ar      1 <0>         0.0000
      4 C4          2.1298   -5.7814    5.6672 C.ar      1 <0>         0.0000
      5 C5          0.3168   -5.2992    4.1506 C.ar      1 <0>         0.0000
      6 C6          0.9170   -0.3122    0.5907 C.ar      1 <0>         0.0000
      7 C7          2.6520   -1.8848    2.0898 C.ar      1 <0>         0.0000
      8 C8          2.5239   -4.4451    5.6265 C.ar      1 <0>         0.0000
      9 C9          0.7029   -3.9540    4.0962 C.ar      1 <0>         0.0000
     10 C10         0.7588   -0.3625    1.9820 C.ar      1 <0>         0.0000
     11 C11         1.6406   -1.1655    2.7343 C.ar      1 <0>         0.0000
     12 C12         1.8093   -3.5266    4.8427 C.ar      1 <0>         0.0000
     13 C13        -0.3396    0.4321    2.6529 C.3       1 <0>         0.0000
     14 C14         1.5020   -1.2175    4.2445 C.3       1 <0>         0.0000
     15 O1          2.2801   -2.2353    4.8700 O.3       1 <0>         0.0000
     16 H1          0.7138   -7.2602    4.9639 H         1 <0>         0.0000
     17 H2          2.0256   -0.9850   -1.1339 H         1 <0>         0.0000
     18 H3          3.5832   -2.3954    0.2132 H         1 <0>         0.0000
     19 H4          2.6892   -6.4841    6.2796 H         1 <0>         0.0000
     20 H5         -0.5395   -5.6252    3.5655 H         1 <0>         0.0000
     21 H6          0.2398    0.3044    0.0034 H         1 <0>         0.0000
     22 H7          3.3232   -2.4988    2.6815 H         1 <0>         0.0000
     23 H8          3.3779   -4.0891    6.1957 H         1 <0>         0.0000
     24 H9          0.1597   -3.2686    3.4561 H         1 <0>         0.0000
     25 H10        -1.0706   -0.2209    3.1456 H         1 <0>         0.0000
     26 H11         0.0555    1.1060    3.4220 H         1 <0>         0.0000
     27 H12        -0.8809    1.0420    1.9253 H         1 <0>         0.0000
     28 H13         1.8678   -0.2837    4.6849 H         1 <0>         0.0000
     29 H14         0.4508   -1.3221    4.5402 H         1 <0>         0.0000
@<TRIPOS>BOND
     1    1    5 ar
     2    1    4 ar
     3    1   16 1
     4    2    3 ar
     5    2    6 ar
     6    2   17 1
     7    3    7 ar
     8    3   18 1
     9    4    8 ar
    10    4   19 1
    11    5    9 ar
    12    5   20 1
    13    6   10 ar
    14    6   21 1
    15    7   11 ar
    16    7   22 1
    17    8   12 ar
    18    8   23 1
    19    9   12 ar
    20    9   24 1
    21   10   11 ar
    22   10   13 1
    23   11   14 1
    24   12   15 1
    25   13   25 1
    26   13   26 1
    27   13   27 1
    28   14   15 1
    29   14   28 1
    30   14   29 1
