@<TRIPOS>MOLECULE
*****
   23    24     0     0     0
SMALL
NO_CHARGES

@<TRIPOS>ATOM
      1 C1         -1.7538   -1.3194   -0.1282 C.ar      1 <0>         0.0000
      2 C2         -0.3880   -1.0336   -0.0343 C.ar      1 <0>         0.0000
      3 C3         -2.1762   -2.6484   -0.1702 C.ar      1 <0>         0.0000
      4 C4          0.5419   -2.0762    0.0075 C.ar      1 <0>         0.0000
      5 C5         -1.2477   -3.6953   -0.0962 C.ar      1 <0>         0.0000
      6 C6          0.1347   -3.4165   -0.0220 C.ar      1 <0>         0.0000
      7 C7         -1.7956   -5.0958   -0.1378 C.2       1 <0>         0.0000
      8 C8          1.1598   -4.5301   -0.0220 C.3       1 <0>         0.0000
      9 C9          1.1715   -5.3636    1.2749 C.3       1 <0>         0.0000
     10 C10        -0.2521   -5.6911    1.7486 C.3       1 <0>         0.0000
     11 N1         -1.1541   -6.0275    0.6441 N.am      1 <0>         0.0000
     12 O1         -2.7724   -5.3944   -0.8271 O.2       1 <0>         0.0000
     13 H1         -2.4814   -0.5135   -0.1748 H         1 <0>         0.0000
     14 H2         -0.0461   -0.0020   -0.0063 H         1 <0>         0.0000
     15 H3         -3.2288   -2.8976   -0.2649 H         1 <0>         0.0000
     16 H4          1.6045   -1.8473    0.0524 H         1 <0>         0.0000
     17 H5          0.9498   -5.2030   -0.8599 H         1 <0>         0.0000
     18 H6          2.1564   -4.1137   -0.1962 H         1 <0>         0.0000
     19 H7          1.7370   -6.2850    1.0952 H         1 <0>         0.0000
     20 H8          1.6833   -4.8175    2.0761 H         1 <0>         0.0000
     21 H9         -0.2394   -6.5386    2.4388 H         1 <0>         0.0000
     22 H10        -0.6602   -4.8377    2.3002 H         1 <0>         0.0000
     23 H11        -1.6075   -6.9338    0.6423 H         1 <0>         0.0000
@<TRIPOS>BOND
     1    1    2 ar
     2    1    3 ar
     3    1   13 1
     4    2    4 ar
     5    2   14 1
     6    3    5 ar
     7    3   15 1
     8    4    6 ar
     9    4   16 1
    10    5    6 ar
    11    5    7 1
    12    6    8 1
    13    7   11 am
    14    7   12 2
    15    8    9 1
    16    8   17 1
    17    8   18 1
    18    9   10 1
    19    9   19 1
    20    9   20 1
    21   10   11 1
    22   10   21 1
    23   10   22 1
    24   11   23 1
