@<TRIPOS>MOLECULE
*****
   27    28     0     0     0
SMALL
NO_CHARGES

@<TRIPOS>ATOM
      1 C1          2.1176   -0.8858   -0.0276 C.ar      1 <0>         0.0000
      2 C2          7.1388   -0.0867    2.0162 C.ar      1 <0>         0.0000
      3 C3          0.8728   -0.5471    0.5089 C.ar      1 <0>         0.0000
      4 C4          8.1164   -1.0846    2.0947 C.ar      1 <0>         0.0000
      5 C5          3.1279   -1.3247    0.8267 C.ar      1 <0>         0.0000
      6 C6          5.8061   -0.4003    2.2861 C.ar      1 <0>         0.0000
      7 C7          0.6504   -0.6633    1.8839 C.ar      1 <0>         0.0000
      8 C8          7.7614   -2.3894    2.4477 C.ar      1 <0>         0.0000
      9 C9          2.9071   -1.4562    2.2098 C.ar      1 <0>         0.0000
     10 C10         5.4244   -1.6998    2.6597 C.ar      1 <0>         0.0000
     11 C11         1.6421   -1.1287    2.7584 C.ar      1 <0>         0.0000
     12 C12         6.4293   -2.6720    2.7327 C.ar      1 <0>         0.0000
     13 C13         4.0065   -2.0004    3.0658 C.2       1 <0>         0.0000
     14 C14         1.3249   -1.2481    4.2305 C.3       1 <0>         0.0000
     15 O1          3.7856   -2.6519    4.0804 O.2       1 <0>         0.0000
     16 F1          6.1074   -3.9446    3.0497 F         1 <0>         0.0000
     17 H1          2.3002   -0.8058   -1.0957 H         1 <0>         0.0000
     18 H2          7.4130    0.9284    1.7438 H         1 <0>         0.0000
     19 H3          0.0758   -0.1911   -0.1391 H         1 <0>         0.0000
     20 H4          9.1553   -0.8519    1.8777 H         1 <0>         0.0000
     21 H5          4.0980   -1.5877    0.4164 H         1 <0>         0.0000
     22 H6          5.0436    0.3706    2.2214 H         1 <0>         0.0000
     23 H7         -0.3203   -0.3899    2.2908 H         1 <0>         0.0000
     24 H8          8.4958   -3.1871    2.5045 H         1 <0>         0.0000
     25 H9          1.2217   -2.2964    4.5230 H         1 <0>         0.0000
     26 H10         2.1198   -0.8344    4.8564 H         1 <0>         0.0000
     27 H11         0.3913   -0.7260    4.4582 H         1 <0>         0.0000
@<TRIPOS>BOND
     1    1    3 ar
     2    1    5 ar
     3    1   17 1
     4    2    4 ar
     5    2    6 ar
     6    2   18 1
     7    3    7 ar
     8    3   19 1
     9    4    8 ar
    10    4   20 1
    11    5    9 ar
    12    5   21 1
    13    6   10 ar
    14    6   22 1
    15    7   11 ar
    16    7   23 1
    17    8   12 ar
    18    8   24 1
    19    9   11 ar
    20    9   13 1
    21   10   12 ar
    22   10   13 1
    23   11   14 1
    24   12   16 1
    25   13   15 2
    26   14   25 1
    27   14   26 1
    28   14   27 1
