@<TRIPOS>MOLECULE
*****
   27    28     0     0     0
SMALL
NO_CHARGES

@<TRIPOS>ATOM
      1 C1          1.9070   -0.9180   -0.1689 C.ar      1 <0>         0.0000
      2 C2          2.4941   -5.3772    4.2739 C.ar      1 <0>         0.0000
      3 C3          0.8099   -0.4253    0.5445 C.ar      1 <0>         0.0000
      4 C4          3.3274   -5.5396    5.3865 C.ar      1 <0>         0.0000
      5 C5          2.9514   -1.5271    0.5245 C.ar      1 <0>         0.0000
      6 C6          2.7222   -4.3246    3.3872 C.ar      1 <0>         0.0000
      7 C7          0.7743   -0.5390    1.9366 C.ar      1 <0>         0.0000
      8 C8          4.3879   -4.6560    5.6062 C.ar      1 <0>         0.0000
      9 C9          2.8998   -1.6772    1.9196 C.ar      1 <0>         0.0000
     10 C10         3.7915   -3.4334    3.5748 C.ar      1 <0>         0.0000
     11 C11         1.8045   -1.1675    2.6516 C.ar      1 <0>         0.0000
     12 C12         4.6083   -3.6281    4.6953 C.ar      1 <0>         0.0000
     13 C13         4.0711   -2.3655    2.5592 C.2       1 <0>         0.0000
     14 C14         1.7219   -1.2221    4.1630 C.3       1 <0>         0.0000
     15 O1          5.2171   -2.1188    2.2047 O.2       1 <0>         0.0000
     16 F1          5.6194   -2.7692    4.9438 F         1 <0>         0.0000
     17 H1          1.9503   -0.8217   -1.2504 H         1 <0>         0.0000
     18 H2          1.6700   -6.0635    4.1023 H         1 <0>         0.0000
     19 H3         -0.0099    0.0603    0.0212 H         1 <0>         0.0000
     20 H4          3.1513   -6.3498    6.0888 H         1 <0>         0.0000
     21 H5          3.8237   -1.9012   -0.0035 H         1 <0>         0.0000
     22 H6          2.0725   -4.1858    2.5277 H         1 <0>         0.0000
     23 H7         -0.0673   -0.1213    2.4846 H         1 <0>         0.0000
     24 H8          5.0417   -4.7496    6.4679 H         1 <0>         0.0000
     25 H9          1.3633   -2.1949    4.5144 H         1 <0>         0.0000
     26 H10         2.6920   -1.0465    4.6349 H         1 <0>         0.0000
     27 H11         1.0294   -0.4596    4.5300 H         1 <0>         0.0000
@<TRIPOS>BOND
     1    1    3 ar
     2    1    5 ar
     3    1   17 1
     4    2    4 ar
     5    2    6 ar
     6    2   18 1
     7    3    7 ar
     8    3   19 1
     9    4    8 ar
    10    4   20 1
    11    5    9 ar
    12    5   21 1
    13    6   10 ar
    14    6   22 1
    15    7   11 ar
    16    7   23 1
    17    8   12 ar
    18    8   24 1
    19    9   11 ar
    20    9   13 1
    21   10   12 ar
    22   10   13 1
    23   11   14 1
    24   12   16 1
    25   13   15 2
    26   14   25 1
    27   14   26 1
    28   14   27 1
