@<TRIPOS>MOLECULE
*****
   36    38     0     0     0
SMALL
NO_CHARGES

@<TRIPOS>ATOM
      1 C1         -0.6508   -0.6912    4.8051 C.ar      1 <0>         0.0000
      2 C2         -0.6771   -2.0632    4.5326 C.ar      1 <0>         0.0000
      3 C3          0.1897    0.1436    4.0616 C.ar      1 <0>         0.0000
      4 C4          3.7037   -3.7659    1.1087 C.ar      1 <0>         0.0000
      5 C5          3.4478   -3.5986   -0.2527 C.ar      1 <0>         0.0000
      6 C6          0.1188   -2.5892    3.5111 C.ar      1 <0>         0.0000
      7 C7          0.9870   -0.3862    3.0437 C.ar      1 <0>         0.0000
      8 C8          2.8727   -3.1450    2.0447 C.ar      1 <0>         0.0000
      9 C9          2.3628   -2.8149   -0.6535 C.ar      1 <0>         0.0000
     10 C10         0.9457   -1.7546    2.7410 C.ar      1 <0>         0.0000
     11 C11         1.7839   -2.3508    1.6545 C.ar      1 <0>         0.0000
     12 C12         1.5179   -2.1876    0.2731 C.ar      1 <0>         0.0000
     13 C13        -0.4779    0.8919    0.5564 C.2       1 <0>         0.0000
     14 C14        -1.8773    0.3277    0.7288 C.3       1 <0>         0.0000
     15 C15        -2.1352   -0.9170   -0.1253 C.3       1 <0>         0.0000
     16 C16        -1.0292   -1.9414    0.1323 C.3       1 <0>         0.0000
     17 C17         0.3436   -1.3853   -0.2806 C.3       1 <0>         0.0000
     18 N1          0.4676    0.0384    0.0582 N.am      1 <0>         0.0000
     19 O1         -0.1916    2.0517    0.8602 O.2       1 <0>         0.0000
     20 H1         -1.2758   -0.2775    5.5923 H         1 <0>         0.0000
     21 H2         -1.3199   -2.7229    5.1101 H         1 <0>         0.0000
     22 H3          0.2219    1.2108    4.2617 H         1 <0>         0.0000
     23 H4          4.5431   -4.3702    1.4427 H         1 <0>         0.0000
     24 H5          4.0836   -4.0709   -0.9968 H         1 <0>         0.0000
     25 H6          0.0865   -3.6535    3.2902 H         1 <0>         0.0000
     26 H7          1.6350    0.2745    2.4785 H         1 <0>         0.0000
     27 H8          3.0690   -3.2669    3.1069 H         1 <0>         0.0000
     28 H9          2.1604   -2.6897   -1.7153 H         1 <0>         0.0000
     29 H10        -1.9872    0.0869    1.7935 H         1 <0>         0.0000
     30 H11        -2.5774    1.1383    0.5116 H         1 <0>         0.0000
     31 H12        -3.1130   -1.3465    0.1174 H         1 <0>         0.0000
     32 H13        -2.1611   -0.6446   -1.1882 H         1 <0>         0.0000
     33 H14        -1.0293   -2.2005    1.1924 H         1 <0>         0.0000
     34 H15        -1.1967   -2.8670   -0.4274 H         1 <0>         0.0000
     35 H16         0.4022   -1.4642   -1.3747 H         1 <0>         0.0000
     36 H17         1.3849    0.4580   -0.0518 H         1 <0>         0.0000
@<TRIPOS>BOND
     1    1    3 ar
     2    1    2 ar
     3    1   20 1
     4    2    6 ar
     5    2   21 1
     6    3    7 ar
     7    3   22 1
     8    4    5 ar
     9    4    8 ar
    10    4   23 1
    11    5    9 ar
    12    5   24 1
    13    6   10 ar
    14    6   25 1
    15    7   10 ar
    16    7   26 1
    17    8   11 ar
    18    8   27 1
    19    9   12 ar
    20    9   28 1
    21   10   11 1
    22   11   12 ar
    23   12   17 1
    24   13   14 1
    25   13   18 am
    26   13   19 2
    27   14   15 1
    28   14   29 1
    29   14   30 1
    30   15   16 1
    31   15   31 1
    32   15   32 1
    33   16   17 1
    34   16   33 1
    35   16   34 1
    36   17   18 1
    37   17   35 1
    38   18   36 1
