@<TRIPOS>MOLECULE
*****
   32    33     0     0     0
SMALL
NO_CHARGES

@<TRIPOS>ATOM
      1 C1         -4.7501   -0.1954   -5.0856 C.ar      1 <0>         0.0000
      2 C2         -5.6248    0.8226   -5.4747 C.ar      1 <0>         0.0000
      3 C3         -3.4400    0.1278   -4.7238 C.ar      1 <0>         0.0000
      4 C4         -5.1803    2.1484   -5.5090 C.ar      1 <0>         0.0000
      5 C5         -2.9967    1.4550   -4.7612 C.ar      1 <0>         0.0000
      6 C6         -3.8647    2.4874   -5.1653 C.ar      1 <0>         0.0000
      7 C7         -1.5563    1.7675   -4.4452 C.2       1 <0>         0.0000
      8 C8         -0.6020    3.1398   -0.7771 C.3       1 <0>         0.0000
      9 C9         -2.0321    2.7526   -1.1797 C.3       1 <0>         0.0000
     10 C10         0.3193    3.1896   -2.0047 C.3       1 <0>         0.0000
     11 C11        -2.0447    1.4571   -2.0041 C.3       1 <0>         0.0000
     12 C12         0.2457    1.8787   -2.7974 C.3       1 <0>         0.0000
     13 C13        -3.3928    3.9213   -5.2345 C.3       1 <0>         0.0000
     14 N1         -1.1412    1.5630   -3.1531 N.am      1 <0>         0.0000
     15 O1         -0.7949    2.1560   -5.3365 O.2       1 <0>         0.0000
     16 H1         -5.0838   -1.2294   -5.0613 H         1 <0>         0.0000
     17 H2         -6.6492    0.5875   -5.7521 H         1 <0>         0.0000
     18 H3         -2.7515   -0.6542   -4.4121 H         1 <0>         0.0000
     19 H4         -5.8665    2.9359   -5.8127 H         1 <0>         0.0000
     20 H5         -0.2155    2.3973   -0.0650 H         1 <0>         0.0000
     21 H6         -0.6010    4.1041   -0.2569 H         1 <0>         0.0000
     22 H7         -2.6633    2.6226   -0.2928 H         1 <0>         0.0000
     23 H8         -2.4795    3.5546   -1.7806 H         1 <0>         0.0000
     24 H9          0.0216    4.0135   -2.6647 H         1 <0>         0.0000
     25 H10         1.3563    3.3753   -1.7020 H         1 <0>         0.0000
     26 H11        -1.7098    0.6171   -1.3802 H         1 <0>         0.0000
     27 H12        -3.0513    1.2286   -2.3499 H         1 <0>         0.0000
     28 H13         0.8231    1.9369   -3.7193 H         1 <0>         0.0000
     29 H14         0.6364    1.0502   -2.1910 H         1 <0>         0.0000
     30 H15        -2.9245    4.2365   -4.2954 H         1 <0>         0.0000
     31 H16        -2.6388    4.0412   -6.0177 H         1 <0>         0.0000
     32 H17        -4.2261    4.5983   -5.4410 H         1 <0>         0.0000
@<TRIPOS>BOND
     1    1    2 ar
     2    1    3 ar
     3    1   16 1
     4    2    4 ar
     5    2   17 1
     6    3    5 ar
     7    3   18 1
     8    4    6 ar
     9    4   19 1
    10    5    6 ar
    11    5    7 1
    12    6   13 1
    13    7   14 am
    14    7   15 2
    15    8   10 1
    16    8    9 1
    17    8   20 1
    18    8   21 1
    19    9   11 1
    20    9   22 1
    21    9   23 1
    22   10   12 1
    23   10   24 1
    24   10   25 1
    25   11   14 1
    26   11   26 1
    27   11   27 1
    28   12   14 1
    29   12   28 1
    30   12   29 1
    31   13   30 1
    32   13   31 1
    33   13   32 1
