@<TRIPOS>MOLECULE
*****
   27    28     0     0     0
SMALL
NO_CHARGES

@<TRIPOS>ATOM
      1 C1          1.4086   -1.6161    0.1105 C.ar      1 <0>         0.0000
      2 C2          3.7995   -6.1189    2.1191 C.ar      1 <0>         0.0000
      3 C3          0.5772   -0.6900    0.7453 C.ar      1 <0>         0.0000
      4 C4          5.1556   -6.4215    1.9539 C.ar      1 <0>         0.0000
      5 C5          2.4724   -2.1711    0.8201 C.ar      1 <0>         0.0000
      6 C6          3.4085   -4.8007    2.3577 C.ar      1 <0>         0.0000
      7 C7          0.8260   -0.3220    2.0705 C.ar      1 <0>         0.0000
      8 C8          6.1159   -5.4093    2.0332 C.ar      1 <0>         0.0000
      9 C9          2.7363   -1.7958    2.1501 C.ar      1 <0>         0.0000
     10 C10         4.3543   -3.7668    2.4591 C.ar      1 <0>         0.0000
     11 C11         1.9058   -0.8456    2.7949 C.ar      1 <0>         0.0000
     12 C12         5.7025   -4.1065    2.2931 C.ar      1 <0>         0.0000
     13 C13         3.9343   -2.3714    2.8361 C.2       1 <0>         0.0000
     14 C14         2.1262   -0.3870    4.2173 C.3       1 <0>         0.0000
     15 O1          4.5558   -1.7565    3.6955 O.2       1 <0>         0.0000
     16 F1          6.6466   -3.1423    2.3431 F         1 <0>         0.0000
     17 H1          1.2290   -1.9050   -0.9214 H         1 <0>         0.0000
     18 H2          3.0518   -6.9045    2.0595 H         1 <0>         0.0000
     19 H3         -0.2649   -0.2550    0.2128 H         1 <0>         0.0000
     20 H4          5.4689   -7.4435    1.7588 H         1 <0>         0.0000
     21 H5          3.1211   -2.8927    0.3332 H         1 <0>         0.0000
     22 H6          2.3563   -4.5611    2.4816 H         1 <0>         0.0000
     23 H7          0.1677    0.3944    2.5563 H         1 <0>         0.0000
     24 H8          7.1739   -5.6118    1.8968 H         1 <0>         0.0000
     25 H9          2.3267   -1.2235    4.8916 H         1 <0>         0.0000
     26 H10         2.9955    0.2726    4.2838 H         1 <0>         0.0000
     27 H11         1.2467    0.1529    4.5796 H         1 <0>         0.0000
@<TRIPOS>BOND
     1    1    3 ar
     2    1    5 ar
     3    1   17 1
     4    2    4 ar
     5    2    6 ar
     6    2   18 1
     7    3    7 ar
     8    3   19 1
     9    4    8 ar
    10    4   20 1
    11    5    9 ar
    12    5   21 1
    13    6   10 ar
    14    6   22 1
    15    7   11 ar
    16    7   23 1
    17    8   12 ar
    18    8   24 1
    19    9   11 ar
    20    9   13 1
    21   10   12 ar
    22   10   13 1
    23   11   14 1
    24   12   16 1
    25   13   15 2
    26   14   25 1
    27   14   26 1
    28   14   27 1
