@<TRIPOS>MOLECULE
*****
   30    32     0     0     0
SMALL
NO_CHARGES

@<TRIPOS>ATOM
      1 C1          5.6188    5.1058   -3.0642 C.ar      1 <0>         0.0000
      2 C2          5.6773    5.8539   -1.8815 C.ar      1 <0>         0.0000
      3 C3          4.5570    4.2203   -3.2719 C.ar      1 <0>         0.0000
      4 C4          0.2834    1.0484   -0.1241 C.ar      1 <0>         0.0000
      5 C5          4.6811    5.7178   -0.9157 C.ar      1 <0>         0.0000
      6 C6          3.5639    4.0757   -2.3006 C.ar      1 <0>         0.0000
      7 C7         -0.3832    2.2690   -0.0780 C.ar      1 <0>         0.0000
      8 C8          1.6808    0.9995   -0.0644 C.ar      1 <0>         0.0000
      9 C9          3.6171    4.8225   -1.1132 C.ar      1 <0>         0.0000
     10 C10         1.7532    3.4584   -0.0104 C.ar      1 <0>         0.0000
     11 C11         0.3393    3.4719    0.0029 C.ar      1 <0>         0.0000
     12 C12         2.3730    2.1991   -0.0063 C.ar      1 <0>         0.0000
     13 C13         2.5405    4.7221   -0.0893 C.2       1 <0>         0.0000
     14 C14        -0.1249    5.7389    0.9363 C.2       1 <0>         0.0000
     15 C15         1.2359    5.6884    1.6238 C.3       1 <0>         0.0000
     16 N1          2.3033    5.7563    0.6383 N.2       1 <0>         0.0000
     17 N2         -0.3715    4.6837    0.0588 N.am      1 <0>         0.0000
     18 O1         -0.9538    6.6174    1.1084 O.2       1 <0>         0.0000
     19 F1          3.7230    2.1482    0.0626 F         1 <0>         0.0000
     20 H1          6.3953    5.2129   -3.8173 H         1 <0>         0.0000
     21 H2          6.5016    6.5425   -1.7143 H         1 <0>         0.0000
     22 H3          4.5010    3.6429   -4.1910 H         1 <0>         0.0000
     23 H4         -0.2857    0.1250   -0.1781 H         1 <0>         0.0000
     24 H5          4.7096    6.2988    0.0003 H         1 <0>         0.0000
     25 H6          2.7387    3.3913   -2.4764 H         1 <0>         0.0000
     26 H7         -1.4696    2.3006   -0.0812 H         1 <0>         0.0000
     27 H8          2.2272    0.0622   -0.0553 H         1 <0>         0.0000
     28 H9          1.2939    6.5535    2.2837 H         1 <0>         0.0000
     29 H10         1.2815    4.7707    2.2308 H         1 <0>         0.0000
     30 H11        -1.3324    4.6661   -0.2690 H         1 <0>         0.0000
@<TRIPOS>BOND
     1    1    3 ar
     2    1    2 ar
     3    1   20 1
     4    2    5 ar
     5    2   21 1
     6    3    6 ar
     7    3   22 1
     8    4    7 ar
     9    4    8 ar
    10    4   23 1
    11    5    9 ar
    12    5   24 1
    13    6    9 ar
    14    6   25 1
    15    7   11 ar
    16    7   26 1
    17    8   12 ar
    18    8   27 1
    19    9   13 1
    20   10   11 ar
    21   10   12 ar
    22   10   13 1
    23   11   17 1
    24   12   19 1
    25   13   16 2
    26   14   15 1
    27   14   17 am
    28   14   18 2
    29   15   16 1
    30   15   28 1
    31   15   29 1
    32   17   30 1
