@<TRIPOS>MOLECULE
*****
   21    21     0     0     0
SMALL
NO_CHARGES

@<TRIPOS>ATOM
      1 C1          1.5715   -0.5906   -6.5980 C.2       1 <0>         0.0000
      2 C2          0.7128    0.0542   -5.6616 C.2       1 <0>         0.0000
      3 C3          2.1881   -1.6976   -6.0576 C.2       1 <0>         0.0000
      4 C4          0.7055   -0.5847   -4.4411 C.2       1 <0>         0.0000
      5 C5          0.5927    0.5221   -0.4364 C.3       1 <0>         0.0000
      6 C6          1.8556    1.4807   -2.3879 C.3       1 <0>         0.0000
      7 C7          1.1559    0.2529   -1.8240 C.3       1 <0>         0.0000
      8 O1         -1.0316    0.8418   -3.1442 O.2       1 <0>         0.0000
      9 O2         -0.6417   -1.5387   -2.4180 O.2       1 <0>         0.0000
     10 S1          1.7312   -1.9558   -4.4276 S.3       1 <0>         0.0000
     11 S2         -0.1350   -0.2754   -2.9189 S.o2      1 <0>         0.0000
     12 H1          1.7286   -0.2598   -7.6165 H         1 <0>         0.0000
     13 H2          0.1308    0.9417   -5.8748 H         1 <0>         0.0000
     14 H3          2.8845   -2.3674   -6.5420 H         1 <0>         0.0000
     15 H4         -0.1206    1.3524   -0.4583 H         1 <0>         0.0000
     16 H5          0.0793   -0.3595   -0.0371 H         1 <0>         0.0000
     17 H6          1.3929    0.7828    0.2646 H         1 <0>         0.0000
     18 H7          1.1672    2.3299   -2.4481 H         1 <0>         0.0000
     19 H8          2.2502    1.2882   -3.3916 H         1 <0>         0.0000
     20 H9          2.6988    1.7738   -1.7533 H         1 <0>         0.0000
     21 H10         1.8652   -0.5804   -1.7744 H         1 <0>         0.0000
@<TRIPOS>BOND
     1    1    2 1
     2    1    3 2
     3    1   12 1
     4    2    4 2
     5    2   13 1
     6    3   10 1
     7    3   14 1
     8    4   10 1
     9    4   11 1
    10    5    7 1
    11    5   15 1
    12    5   16 1
    13    5   17 1
    14    6    7 1
    15    6   18 1
    16    6   19 1
    17    6   20 1
    18    7   11 1
    19    7   21 1
    20    8   11 2
    21    9   11 2
