@<TRIPOS>MOLECULE
*****
   54    56     0     0     0
SMALL
NO_CHARGES

@<TRIPOS>ATOM
      1 C1          0.2381   -5.6181   -5.2820 C.ar      1 <0>         0.0000
      2 C2         -0.9439   -4.9451   -4.9982 C.ar      1 <0>         0.0000
      3 C3          1.4260   -4.9057   -5.5131 C.ar      1 <0>         0.0000
      4 C4          0.2029   -2.8003   -5.2158 C.ar      1 <0>         0.0000
      5 C5         -0.9677   -3.5476   -4.9888 C.ar      1 <0>         0.0000
      6 C6          1.4020   -3.5020   -5.4755 C.ar      1 <0>         0.0000
      7 C7          3.6872   -6.8867   -7.6813 C.2       1 <0>         0.0000
      8 C8          2.6966   -8.1832   -5.7023 C.2       1 <0>         0.0000
      9 C9          2.6928   -5.6865   -5.7092 C.2       1 <0>         0.0000
     10 C10         5.0782   -7.2775   -7.2406 C.3       1 <0>         0.0000
     11 C11         4.0920   -8.5676   -5.2711 C.3       1 <0>         0.0000
     12 C12         5.0590   -8.6096   -6.4687 C.3       1 <0>         0.0000
     13 C13        -0.3514    2.9102   -5.0638 C.3       1 <0>         0.0000
     14 C14        -0.0607    3.1193   -6.5807 C.3       1 <0>         0.0000
     15 C15        -0.5558    1.3921   -4.8807 C.3       1 <0>         0.0000
     16 C16         0.0142    1.7004   -7.1989 C.3       1 <0>         0.0000
     17 C17         2.5867   -6.9379   -6.6024 C.3       1 <0>         0.0000
     18 C18         0.2897    0.7698   -6.0036 C.3       1 <0>         0.0000
     19 C19        -4.7087   -2.1460   -6.3203 C.3       1 <0>         0.0000
     20 C20        -0.0332   -0.6791   -6.3005 C.3       1 <0>         0.0000
     21 C21        -3.3258   -2.7928   -6.3597 C.3       1 <0>         0.0000
     22 O1          3.3929   -6.5683   -8.8182 O.2       1 <0>         0.0000
     23 O2          1.6890   -8.7894   -5.3821 O.2       1 <0>         0.0000
     24 O3          3.7416   -5.3780   -5.1698 O.2       1 <0>         0.0000
     25 O4         -3.3607   -3.7632   -3.8832 O.2       1 <0>         0.0000
     26 O5         -2.4600   -1.4023   -4.2423 O.2       1 <0>         0.0000
     27 O6          0.2419   -1.4505   -5.1062 O.3       1 <0>         0.0000
     28 S1         -2.5979   -2.7935   -4.6868 S.o2      1 <0>         0.0000
     29 Cl1         2.8299   -2.5532   -5.7878 Cl        1 <0>         0.0000
     30 H1          0.2491   -6.7040   -5.2883 H         1 <0>         0.0000
     31 H2         -1.8513   -5.4939   -4.7681 H         1 <0>         0.0000
     32 H3          5.7178   -7.3278   -8.1244 H         1 <0>         0.0000
     33 H4          5.4486   -6.4843   -6.5805 H         1 <0>         0.0000
     34 H5          4.4364   -7.8048   -4.5615 H         1 <0>         0.0000
     35 H6          4.0400   -9.5267   -4.7514 H         1 <0>         0.0000
     36 H7          6.0672   -8.8331   -6.1086 H         1 <0>         0.0000
     37 H8          4.7743   -9.4250   -7.1438 H         1 <0>         0.0000
     38 H9          0.5023    3.2490   -4.4675 H         1 <0>         0.0000
     39 H10        -1.2199    3.4819   -4.7240 H         1 <0>         0.0000
     40 H11        -0.8317    3.7228   -7.0686 H         1 <0>         0.0000
     41 H12         0.8872    3.6481   -6.7213 H         1 <0>         0.0000
     42 H13        -0.2739    1.0303   -3.8896 H         1 <0>         0.0000
     43 H14        -1.6066    1.1178   -5.0300 H         1 <0>         0.0000
     44 H15        -0.9522    1.4344   -7.6475 H         1 <0>         0.0000
     45 H16         0.7697    1.6190   -7.9871 H         1 <0>         0.0000
     46 H17         1.6249   -6.9592   -7.1121 H         1 <0>         0.0000
     47 H18         1.3521    0.8319   -5.7330 H         1 <0>         0.0000
     48 H19        -5.3781   -2.6940   -5.6530 H         1 <0>         0.0000
     49 H20        -4.6458   -1.1098   -5.9798 H         1 <0>         0.0000
     50 H21        -5.1393   -2.1557   -7.3260 H         1 <0>         0.0000
     51 H22         0.5738   -1.0677   -7.1274 H         1 <0>         0.0000
     52 H23        -1.0952   -0.7821   -6.5534 H         1 <0>         0.0000
     53 H24        -2.6337   -2.2505   -7.0082 H         1 <0>         0.0000
     54 H25        -3.3633   -3.8392   -6.6732 H         1 <0>         0.0000
@<TRIPOS>BOND
     1    1    2 ar
     2    1    3 ar
     3    1   30 1
     4    2    5 ar
     5    2   31 1
     6    3    6 ar
     7    3    9 1
     8    4    5 ar
     9    4    6 ar
    10    4   27 1
    11    5   28 1
    12    6   29 1
    13    7   10 1
    14    7   17 1
    15    7   22 2
    16    8   11 1
    17    8   17 1
    18    8   23 2
    19    9   17 1
    20    9   24 2
    21   10   12 1
    22   10   32 1
    23   10   33 1
    24   11   12 1
    25   11   34 1
    26   11   35 1
    27   12   36 1
    28   12   37 1
    29   13   14 1
    30   13   15 1
    31   13   38 1
    32   13   39 1
    33   14   16 1
    34   14   40 1
    35   14   41 1
    36   15   18 1
    37   15   42 1
    38   15   43 1
    39   16   18 1
    40   16   44 1
    41   16   45 1
    42   17   46 1
    43   18   20 1
    44   18   47 1
    45   19   21 1
    46   19   48 1
    47   19   49 1
    48   19   50 1
    49   20   27 1
    50   20   51 1
    51   20   52 1
    52   21   28 1
    53   21   53 1
    54   21   54 1
    55   25   28 2
    56   26   28 2
