@<TRIPOS>MOLECULE
*****
   47    48     0     0     0
SMALL
NO_CHARGES

@<TRIPOS>ATOM
      1 C1          1.4789    0.8980   -1.1594 C.2       1 <0>         0.0000
      2 C2         -0.7065    1.4097    0.8260 C.2       1 <0>         0.0000
      3 C3         -0.7138   -0.8360   -3.2800 C.3       1 <0>         0.0000
      4 C4         -0.8034    1.2470   -2.3707 C.3       1 <0>         0.0000
      5 C5         -0.0050   -1.0219   -1.9396 C.3       1 <0>         0.0000
      6 C6          0.0231    0.4307   -1.3373 C.3       1 <0>         0.0000
      7 C7          4.3742    0.3095   -1.7802 C.3       1 <0>         0.0000
      8 C8          3.7121    1.2657   -4.0174 C.3       1 <0>         0.0000
      9 C9          3.7095    2.7592   -1.9858 C.3       1 <0>         0.0000
     10 C10        -2.3053    2.7585    2.9906 C.3       1 <0>         0.0000
     11 C11        -1.2371    0.9442    4.3826 C.3       1 <0>         0.0000
     12 C12         0.2159    2.7395    3.3625 C.3       1 <0>         0.0000
     13 C13         3.5021    1.3358   -2.5055 C.3       1 <0>         0.0000
     14 C14        -1.0559    1.9048    3.2084 C.3       1 <0>         0.0000
     15 N1         -0.6472    0.3160   -0.0548 N.am      1 <0>         0.0000
     16 O1          1.9908    1.1210   -0.0856 O.2       1 <0>         0.0000
     17 O2         -0.6273    2.5549    0.4242 O.2       1 <0>         0.0000
     18 O3         -2.0023   -1.6049    1.1063 O.2       1 <0>         0.0000
     19 O4          0.5230   -1.7486    1.0567 O.2       1 <0>         0.0000
     20 O5         -1.5627    0.2886   -3.1033 O.3       1 <0>         0.0000
     21 O6         -0.8244   -1.8401   -1.0807 O.3       1 <0>         0.0000
     22 O7          2.0684    0.9605   -2.3639 O.3       1 <0>         0.0000
     23 O8         -0.8908    0.9692    2.0661 O.3       1 <0>         0.0000
     24 S1         -0.7357   -1.3171    0.4740 S.o2      1 <0>         0.0000
     25 H1          0.0385   -0.6492   -4.0602 H         1 <0>         0.0000
     26 H2         -1.3228   -1.7005   -3.5483 H         1 <0>         0.0000
     27 H3         -1.4855    1.9380   -1.8810 H         1 <0>         0.0000
     28 H4         -0.1253    1.7942   -3.0352 H         1 <0>         0.0000
     29 H5          0.9870   -1.4701   -2.0160 H         1 <0>         0.0000
     30 H6          4.2318    0.3519   -0.7002 H         1 <0>         0.0000
     31 H7          4.1466   -0.7026   -2.1297 H         1 <0>         0.0000
     32 H8          5.4264    0.5141   -2.0018 H         1 <0>         0.0000
     33 H9          3.0471    1.9641   -4.5336 H         1 <0>         0.0000
     34 H10         3.5138    0.2563   -4.3900 H         1 <0>         0.0000
     35 H11         4.7456    1.5269   -4.2617 H         1 <0>         0.0000
     36 H12         3.0171    3.4501   -2.4765 H         1 <0>         0.0000
     37 H13         3.5628    2.8176   -0.9071 H         1 <0>         0.0000
     38 H14         4.7304    3.0794   -2.2174 H         1 <0>         0.0000
     39 H15        -2.1825    3.4387    2.1467 H         1 <0>         0.0000
     40 H16        -3.1761    2.1202    2.8127 H         1 <0>         0.0000
     41 H17        -2.4949    3.3516    3.8909 H         1 <0>         0.0000
     42 H18        -0.3562    0.3065    4.4959 H         1 <0>         0.0000
     43 H19        -2.1084    0.3033    4.2233 H         1 <0>         0.0000
     44 H20        -1.3807    1.5123    5.3064 H         1 <0>         0.0000
     45 H21         1.0922    2.0876    3.4215 H         1 <0>         0.0000
     46 H22         0.3453    3.4284    2.5269 H         1 <0>         0.0000
     47 H23         0.1531    3.3184    4.2895 H         1 <0>         0.0000
@<TRIPOS>BOND
     1    1    6 1
     2    1   16 2
     3    1   22 1
     4    2   15 am
     5    2   17 2
     6    2   23 1
     7    3    5 1
     8    3   20 1
     9    3   25 1
    10    3   26 1
    11    4    6 1
    12    4   20 1
    13    4   27 1
    14    4   28 1
    15    5    6 1
    16    5   21 1
    17    5   29 1
    18    6   15 1
    19    7   13 1
    20    7   30 1
    21    7   31 1
    22    7   32 1
    23    8   13 1
    24    8   33 1
    25    8   34 1
    26    8   35 1
    27    9   13 1
    28    9   36 1
    29    9   37 1
    30    9   38 1
    31   10   14 1
    32   10   39 1
    33   10   40 1
    34   10   41 1
    35   11   14 1
    36   11   42 1
    37   11   43 1
    38   11   44 1
    39   12   14 1
    40   12   45 1
    41   12   46 1
    42   12   47 1
    43   13   22 1
    44   14   23 1
    45   15   24 1
    46   18   24 2
    47   19   24 2
    48   21   24 1
