@<TRIPOS>MOLECULE
*****
   57    60     0     0     0
SMALL
NO_CHARGES

@<TRIPOS>ATOM
      1 C1          5.7844   -6.3794    5.7393 C.ar      1 <0>         0.0000
      2 C2         -1.0489   -7.9973    2.3253 C.ar      1 <0>         0.0000
      3 C3          5.9297   -5.3349    4.8173 C.ar      1 <0>         0.0000
      4 C4          4.5038   -6.8018    6.1066 C.ar      1 <0>         0.0000
      5 C5         -1.0575   -6.9075    1.4466 C.ar      1 <0>         0.0000
      6 C6          0.1178   -8.3043    3.0321 C.ar      1 <0>         0.0000
      7 C7          0.8903   -1.9335    0.1286 C.ar      1 <0>         0.0000
      8 C8         -0.4931   -1.9151    2.0832 C.ar      1 <0>         0.0000
      9 C9          4.8023   -4.7191    4.2701 C.ar      1 <0>         0.0000
     10 C10         3.3767   -6.1848    5.5516 C.ar      1 <0>         0.0000
     11 C11         0.0902   -6.1287    1.2800 C.ar      1 <0>         0.0000
     12 C12         1.2650   -7.5215    2.8637 C.ar      1 <0>         0.0000
     13 C13         1.7559   -2.8328    0.7420 C.ar      1 <0>         0.0000
     14 C14         0.3588   -2.8378    2.7018 C.ar      1 <0>         0.0000
     15 C15        -0.2578   -1.4564    0.7848 C.ar      1 <0>         0.0000
     16 C16         3.5136   -5.1390    4.6317 C.ar      1 <0>         0.0000
     17 C17         1.2656   -6.4258    1.9894 C.ar      1 <0>         0.0000
     18 C18         1.4970   -3.3200    2.0386 C.ar      1 <0>         0.0000
     19 C19        -1.7221    1.5880   -0.1006 C.3       1 <0>         0.0000
     20 C20        -0.5924    0.6910   -0.6732 C.3       1 <0>         0.0000
     21 C21        -2.0440    0.4739    0.9310 C.3       1 <0>         0.0000
     22 C22        -1.2194   -0.5370    0.0670 C.3       1 <0>         0.0000
     23 C23         2.2912   -4.4500    4.0592 C.3       1 <0>         0.0000
     24 C24         2.4932   -5.5430    1.8592 C.3       1 <0>         0.0000
     25 C25        -2.1191   -1.3398   -0.8955 C.3       1 <0>         0.0000
     26 C26        -2.9086   -2.4567   -0.2256 C.3       1 <0>         0.0000
     27 N1          2.3867   -4.2688    2.6096 N.pl3     1 <0>         0.0000
     28 O1         -3.8239   -2.9829   -1.1983 O.3       1 <0>         0.0000
     29 H1          6.6620   -6.8598    6.1644 H         1 <0>         0.0000
     30 H2         -1.9414   -8.6049    2.4523 H         1 <0>         0.0000
     31 H3          6.9231   -5.0017    4.5269 H         1 <0>         0.0000
     32 H4          4.3808   -7.6140    6.8188 H         1 <0>         0.0000
     33 H5         -1.9581   -6.6684    0.8861 H         1 <0>         0.0000
     34 H6          0.1360   -9.1535    3.7110 H         1 <0>         0.0000
     35 H7          1.1176   -1.5822   -0.8757 H         1 <0>         0.0000
     36 H8         -1.3724   -1.5734    2.6237 H         1 <0>         0.0000
     37 H9          4.9088   -3.9161    3.5452 H         1 <0>         0.0000
     38 H10         2.3814   -6.5227    5.8325 H         1 <0>         0.0000
     39 H11         0.0744   -5.2848    0.5958 H         1 <0>         0.0000
     40 H12         2.1710   -7.7633    3.4146 H         1 <0>         0.0000
     41 H13         2.6506   -3.1605    0.2197 H         1 <0>         0.0000
     42 H14         0.1068   -3.1991    3.6926 H         1 <0>         0.0000
     43 H15        -2.5347    1.7447   -0.8150 H         1 <0>         0.0000
     44 H16        -1.4233    2.5593    0.3023 H         1 <0>         0.0000
     45 H17        -0.5112    0.6170   -1.7625 H         1 <0>         0.0000
     46 H18         0.3871    0.9501   -0.2613 H         1 <0>         0.0000
     47 H19        -1.5674    0.6671    1.8961 H         1 <0>         0.0000
     48 H20        -3.0990    0.2381    1.1013 H         1 <0>         0.0000
     49 H21         1.3904   -5.0084    4.3585 H         1 <0>         0.0000
     50 H22         2.2110   -3.4519    4.5027 H         1 <0>         0.0000
     51 H23         3.3758   -6.0725    2.2254 H         1 <0>         0.0000
     52 H24         2.6764   -5.3012    0.8112 H         1 <0>         0.0000
     53 H25        -1.5010   -1.7757   -1.6894 H         1 <0>         0.0000
     54 H26        -2.8319   -0.6636   -1.3826 H         1 <0>         0.0000
     55 H27        -2.2286   -3.2404    0.1325 H         1 <0>         0.0000
     56 H28        -3.4562   -2.0661    0.6453 H         1 <0>         0.0000
     57 H29        -4.3028   -3.7211   -0.7916 H         1 <0>         0.0000
@<TRIPOS>BOND
     1    1    4 ar
     2    1    3 ar
     3    1   29 1
     4    2    6 ar
     5    2    5 ar
     6    2   30 1
     7    3    9 ar
     8    3   31 1
     9    4   10 ar
    10    4   32 1
    11    5   11 ar
    12    5   33 1
    13    6   12 ar
    14    6   34 1
    15    7   13 ar
    16    7   15 ar
    17    7   35 1
    18    8   14 ar
    19    8   15 ar
    20    8   36 1
    21    9   16 ar
    22    9   37 1
    23   10   16 ar
    24   10   38 1
    25   11   17 ar
    26   11   39 1
    27   12   17 ar
    28   12   40 1
    29   13   18 ar
    30   13   41 1
    31   14   18 ar
    32   14   42 1
    33   15   22 1
    34   16   23 1
    35   17   24 1
    36   18   27 1
    37   19   21 1
    38   19   20 1
    39   19   43 1
    40   19   44 1
    41   20   22 1
    42   20   45 1
    43   20   46 1
    44   21   22 1
    45   21   47 1
    46   21   48 1
    47   22   25 1
    48   23   27 1
    49   23   49 1
    50   23   50 1
    51   24   27 1
    52   24   51 1
    53   24   52 1
    54   25   26 1
    55   25   53 1
    56   25   54 1
    57   26   28 1
    58   26   55 1
    59   26   56 1
    60   28   57 1
