@<TRIPOS>MOLECULE
*****
   27    27     0     0     0
SMALL
NO_CHARGES

@<TRIPOS>ATOM
      1 C1          0.6051    0.0066   -0.8110 C.2       1 <0>         0.0000
      2 C2          1.8116    1.7114    0.6203 C.2       1 <0>         0.0000
      3 C3         -0.1074   -0.9905    1.3463 C.3       1 <0>         0.0000
      4 C4          1.8267    0.2872    0.0858 C.3       1 <0>         0.0000
      5 C5         -0.4550   -0.8692   -0.1398 C.3       1 <0>         0.0000
      6 C6         -2.9671   -1.3046    0.0810 C.3       1 <0>         0.0000
      7 C7          0.7073    3.3219    3.0748 C.3       1 <0>         0.0000
      8 C8         -1.8743   -0.3589   -0.4272 C.3       1 <0>         0.0000
      9 C9          0.3998    3.3822    1.5864 C.3       1 <0>         0.0000
     10 O1          0.5293    0.4313   -1.9454 O.2       1 <0>         0.0000
     11 O2          2.7930    2.4133    0.7378 O.2       1 <0>         0.0000
     12 O3          0.5538    2.0735    0.9682 O.3       1 <0>         0.0000
     13 S1          1.7300   -0.9172    1.4666 S.3       1 <0>         0.0000
     14 H1         -0.5440   -0.1706    1.9217 H         1 <0>         0.0000
     15 H2         -0.4268   -1.9399    1.7793 H         1 <0>         0.0000
     16 H3          2.7512    0.1456   -0.4736 H         1 <0>         0.0000
     17 H4         -0.3310   -1.8588   -0.6031 H         1 <0>         0.0000
     18 H5         -2.8689   -2.2995   -0.3685 H         1 <0>         0.0000
     19 H6         -3.9610   -0.9216   -0.1717 H         1 <0>         0.0000
     20 H7         -2.9277   -1.4251    1.1691 H         1 <0>         0.0000
     21 H8          0.0710    2.5848    3.5740 H         1 <0>         0.0000
     22 H9          1.7539    3.0589    3.2448 H         1 <0>         0.0000
     23 H10         0.5202    4.3017    3.5275 H         1 <0>         0.0000
     24 H11        -1.9878    0.6309    0.0310 H         1 <0>         0.0000
     25 H12        -1.9694   -0.2161   -1.5081 H         1 <0>         0.0000
     26 H13         1.0495    4.0905    1.0689 H         1 <0>         0.0000
     27 H14        -0.6434    3.6429    1.3983 H         1 <0>         0.0000
@<TRIPOS>BOND
     1    1    4 1
     2    1    5 1
     3    1   10 2
     4    2    4 1
     5    2   11 2
     6    2   12 1
     7    3    5 1
     8    3   13 1
     9    3   14 1
    10    3   15 1
    11    4   13 1
    12    4   16 1
    13    5    8 1
    14    5   17 1
    15    6    8 1
    16    6   18 1
    17    6   19 1
    18    6   20 1
    19    7    9 1
    20    7   21 1
    21    7   22 1
    22    7   23 1
    23    8   24 1
    24    8   25 1
    25    9   12 1
    26    9   26 1
    27    9   27 1
