@<TRIPOS>MOLECULE
*****
   40    41     0     0     0
SMALL
NO_CHARGES

@<TRIPOS>ATOM
      1 C1          1.9878   -4.0590    0.5521 C.ar      1 <0>         0.0000
      2 C2          1.0031   -3.4728   -0.2442 C.ar      1 <0>         0.0000
      3 C3          2.4961   -3.3462    1.6429 C.ar      1 <0>         0.0000
      4 C4          0.5174   -2.1923    0.0454 C.ar      1 <0>         0.0000
      5 C5          3.7077    2.0830    2.9575 C.2       1 <0>         0.0000
      6 C6          3.1037    1.0760    3.6714 C.2       1 <0>         0.0000
      7 C7          3.6989    0.3717    1.6583 C.2       1 <0>         0.0000
      8 C8          2.0319   -2.0636    1.9517 C.ar      1 <0>         0.0000
      9 C9          1.0214   -1.4857    1.1453 C.ar      1 <0>         0.0000
     10 C10         2.6242   -1.8328    4.3526 C.2       1 <0>         0.0000
     11 C11         2.5882   -1.3231    3.1121 C.2       1 <0>         0.0000
     12 C12        -1.5035    2.1788    2.0705 C.2       1 <0>         0.0000
     13 C13        -0.4925    1.8519    1.2393 C.2       1 <0>         0.0000
     14 C14        -2.5220    1.1890    2.5942 C.3       1 <0>         0.0000
     15 C15        -1.7216    3.5762    2.6071 C.3       1 <0>         0.0000
     16 C16         0.6060    2.7890    0.7903 C.3       1 <0>         0.0000
     17 C17        -0.3399    0.4572    0.6870 C.3       1 <0>         0.0000
     18 N1          4.0792    1.6323    1.7021 N.2       1 <0>         0.0000
     19 N2          3.1022   -0.0291    2.8328 N.pl3     1 <0>         0.0000
     20 O1          0.5853   -0.2578    1.5346 O.3       1 <0>         0.0000
     21 H1          2.3664   -5.0506    0.3221 H         1 <0>         0.0000
     22 H2          0.6031   -4.0096   -1.1006 H         1 <0>         0.0000
     23 H3          3.2828   -3.7735    2.2585 H         1 <0>         0.0000
     24 H4         -0.2577   -1.7623   -0.5781 H         1 <0>         0.0000
     25 H5          3.8835    3.1057    3.2659 H         1 <0>         0.0000
     26 H6          2.6425    1.0479    4.6470 H         1 <0>         0.0000
     27 H7          3.8288   -0.3054    0.8248 H         1 <0>         0.0000
     28 H8          3.1018   -1.3095    5.1751 H         1 <0>         0.0000
     29 H9          2.1598   -2.7904    4.5591 H         1 <0>         0.0000
     30 H10        -2.6224    1.3076    3.6801 H         1 <0>         0.0000
     31 H11        -2.2641    0.1463    2.4076 H         1 <0>         0.0000
     32 H12        -3.5147    1.3837    2.1674 H         1 <0>         0.0000
     33 H13        -2.7878    3.8307    2.5695 H         1 <0>         0.0000
     34 H14        -1.1772    4.3449    2.0581 H         1 <0>         0.0000
     35 H15        -1.4232    3.6356    3.6623 H         1 <0>         0.0000
     36 H16         0.6394    3.7207    1.3552 H         1 <0>         0.0000
     37 H17         1.5812    2.3059    0.9083 H         1 <0>         0.0000
     38 H18         0.5004    3.0409   -0.2737 H         1 <0>         0.0000
     39 H19        -1.2857   -0.0894    0.6398 H         1 <0>         0.0000
     40 H20         0.0773    0.5025   -0.3272 H         1 <0>         0.0000
@<TRIPOS>BOND
     1    1    2 ar
     2    1    3 ar
     3    1   21 1
     4    2    4 ar
     5    2   22 1
     6    3    8 ar
     7    3   23 1
     8    4    9 ar
     9    4   24 1
    10    5    6 2
    11    5   18 1
    12    5   25 1
    13    6   19 1
    14    6   26 1
    15    7   18 2
    16    7   19 1
    17    7   27 1
    18    8    9 ar
    19    8   11 1
    20    9   20 1
    21   10   11 2
    22   10   28 1
    23   10   29 1
    24   11   19 1
    25   12   13 2
    26   12   14 1
    27   12   15 1
    28   13   16 1
    29   13   17 1
    30   14   30 1
    31   14   31 1
    32   14   32 1
    33   15   33 1
    34   15   34 1
    35   15   35 1
    36   16   36 1
    37   16   37 1
    38   16   38 1
    39   17   20 1
    40   17   39 1
    41   17   40 1
