@<TRIPOS>MOLECULE
*****
   23    24     0     0     0
SMALL
NO_CHARGES

@<TRIPOS>ATOM
      1 C1         -0.6784    1.0650   -2.2036 C.2       1 <0>         0.0000
      2 C2         -1.6144    0.2524   -1.5003 C.2       1 <0>         0.0000
      3 C3          0.3662    0.3426   -2.7258 C.2       1 <0>         0.0000
      4 C4         -7.5786   -2.5940   -0.0623 C.2       1 <0>         0.0000
      5 C5         -1.2712   -1.0915   -1.4893 C.2       1 <0>         0.0000
      6 C6         -7.5948   -1.4439   -0.7996 C.2       1 <0>         0.0000
      7 C7         -5.4035   -1.7330   -0.6855 C.2       1 <0>         0.0000
      8 C8         -1.9097   -2.2417   -0.8611 C.2       1 <0>         0.0000
      9 C9         -8.8152   -0.6937   -1.2450 C.3       1 <0>         0.0000
     10 N1         -6.3422   -0.9564   -1.1510 N.2       1 <0>         0.0000
     11 N2         -3.1562   -2.4173   -0.5605 N.2       1 <0>         0.0000
     12 N3         -4.0595   -1.4504   -0.8596 N.pl3     1 <0>         0.0000
     13 S1          0.2272   -1.3408   -2.3621 S.3       1 <0>         0.0000
     14 S2         -5.9368   -3.1326    0.2222 S.3       1 <0>         0.0000
     15 H1         -0.7724    2.1405   -2.3113 H         1 <0>         0.0000
     16 H2         -2.4645    0.6585   -0.9634 H         1 <0>         0.0000
     17 H3          1.2047    0.7043   -3.3073 H         1 <0>         0.0000
     18 H4         -8.4180   -3.1580    0.3225 H         1 <0>         0.0000
     19 H5         -1.2754   -3.0894   -0.6102 H         1 <0>         0.0000
     20 H6         -8.8005    0.3296   -0.8548 H         1 <0>         0.0000
     21 H7         -8.8468   -0.6264   -2.3378 H         1 <0>         0.0000
     22 H8         -9.7277   -1.1857   -0.8994 H         1 <0>         0.0000
     23 H9         -3.8578   -0.7598   -1.5832 H         1 <0>         0.0000
@<TRIPOS>BOND
     1    1    2 1
     2    1    3 2
     3    1   15 1
     4    2    5 2
     5    2   16 1
     6    3   13 1
     7    3   17 1
     8    4    6 2
     9    4   14 1
    10    4   18 1
    11    5    8 1
    12    5   13 1
    13    6    9 1
    14    6   10 1
    15    7   10 2
    16    7   12 1
    17    7   14 1
    18    8   11 2
    19    8   19 1
    20    9   20 1
    21    9   21 1
    22    9   22 1
    23   11   12 1
    24   12   23 1
