@<TRIPOS>MOLECULE
*****
   30    31     0     0     0
SMALL
NO_CHARGES

@<TRIPOS>ATOM
      1 C1         -0.8536    1.0734   -2.8289 C.ar      1 <0>         0.0000
      2 C2         -1.5521    2.5660   -1.0622 C.ar      1 <0>         0.0000
      3 C3         -1.0898    2.0761   -3.7694 C.ar      1 <0>         0.0000
      4 C4         -1.7883    3.5687   -2.0027 C.ar      1 <0>         0.0000
      5 C5         -1.0848    1.3184   -1.4753 C.ar      1 <0>         0.0000
      6 C6         -1.5571    3.3237   -3.3563 C.ar      1 <0>         0.0000
      7 C7         -1.5698   -1.1639    1.4049 C.3       1 <0>         0.0000
      8 C8         -1.7195    0.2321    0.7994 C.3       1 <0>         0.0000
      9 C9         -0.9460   -2.0421    0.3188 C.3       1 <0>         0.0000
     10 C10        -0.8300    0.2283   -0.4544 C.3       1 <0>         0.0000
     11 C11        -1.0160   -1.2128   -0.9602 C.3       1 <0>         0.0000
     12 C12        -3.1034    3.8250   -5.5976 C.3       1 <0>         0.0000
     13 O1         -2.3025   -1.3705   -1.5524 O.3       1 <0>         0.0000
     14 F1         -4.0033    3.1200   -4.8708 F         1 <0>         0.0000
     15 F2         -2.5542    2.9813   -6.5032 F         1 <0>         0.0000
     16 F3         -3.7997    4.7550   -6.2969 F         1 <0>         0.0000
     17 S1         -1.8588    4.6047   -4.5576 S.3       1 <0>         0.0000
     18 H1         -0.4897    0.1043   -3.1599 H         1 <0>         0.0000
     19 H2         -1.7355    2.7656   -0.0098 H         1 <0>         0.0000
     20 H3         -0.9042    1.8659   -4.8201 H         1 <0>         0.0000
     21 H4         -2.1527    4.5346   -1.6614 H         1 <0>         0.0000
     22 H5         -0.9265   -1.1419    2.2913 H         1 <0>         0.0000
     23 H6         -2.5453   -1.5510    1.7186 H         1 <0>         0.0000
     24 H7         -2.7707    0.4109    0.5382 H         1 <0>         0.0000
     25 H8         -1.4258    1.0159    1.5058 H         1 <0>         0.0000
     26 H9          0.1003   -2.2437    0.5771 H         1 <0>         0.0000
     27 H10        -1.4706   -2.9991    0.2345 H         1 <0>         0.0000
     28 H11         0.2399    0.3399   -0.1269 H         1 <0>         0.0000
     29 H12        -0.2573   -1.5048   -1.6928 H         1 <0>         0.0000
     30 H13        -2.4037   -2.3155   -1.7446 H         1 <0>         0.0000
@<TRIPOS>BOND
     1    1    3 ar
     2    1    5 ar
     3    1   18 1
     4    2    4 ar
     5    2    5 ar
     6    2   19 1
     7    3    6 ar
     8    3   20 1
     9    4    6 ar
    10    4   21 1
    11    5   10 1
    12    6   17 1
    13    7    8 1
    14    7    9 1
    15    7   22 1
    16    7   23 1
    17    8   10 1
    18    8   24 1
    19    8   25 1
    20    9   11 1
    21    9   26 1
    22    9   27 1
    23   10   11 1
    24   10   28 1
    25   11   13 1
    26   11   29 1
    27   12   14 1
    28   12   15 1
    29   12   16 1
    30   12   17 1
    31   13   30 1
