@<TRIPOS>MOLECULE
*****
   39    41     0     0     0
SMALL
NO_CHARGES

@<TRIPOS>ATOM
      1 C1          2.1378   -1.6870   -1.9287 C.2       1 <0>         0.0000
      2 C2          3.8139   -2.2985   -2.9758 C.2       1 <0>         0.0000
      3 C3         -1.5773    1.2566    1.1802 C.3       1 <0>         0.0000
      4 C4          0.6765    0.3517   -1.6576 C.3       1 <0>         0.0000
      5 C5          1.4788   -0.8685    0.3734 C.3       1 <0>         0.0000
      6 C6         -2.4170    0.4566    0.2018 C.3       1 <0>         0.0000
      7 C7          1.0609   -1.0207   -1.0922 C.3       1 <0>         0.0000
      8 C8         -0.1607    0.9936    0.7022 C.3       1 <0>         0.0000
      9 C9         -0.3974    1.0154   -0.8082 C.3       1 <0>         0.0000
     10 C10         5.1737   -2.3091   -3.5264 C.3       1 <0>         0.0000
     11 C11         2.4740    0.4990    4.4974 C.3       1 <0>         0.0000
     12 C12         2.0122    0.4537    3.0580 C.3       1 <0>         0.0000
     13 N1          3.3612   -1.2913   -2.1742 N.2       1 <0>         0.0000
     14 N2          2.9395   -3.2767   -3.2293 N.2       1 <0>         0.0000
     15 N3          0.3244   -0.3536    1.1739 N.pl3     1 <0>         0.0000
     16 O1          0.8809   -1.8997    3.1527 O.2       1 <0>         0.0000
     17 O2         -0.5378    0.1546    3.5434 O.2       1 <0>         0.0000
     18 O3          1.8042   -2.8637   -2.5207 O.3       1 <0>         0.0000
     19 O4         -1.6716    0.3803   -1.0212 O.3       1 <0>         0.0000
     20 S1          0.5457   -0.5245    2.8765 S.o2      1 <0>         0.0000
     21 H1         -1.8050    2.3235    1.0591 H         1 <0>         0.0000
     22 H2         -1.7941    0.9973    2.2176 H         1 <0>         0.0000
     23 H3          1.5609    1.0019   -1.6904 H         1 <0>         0.0000
     24 H4          0.3200    0.2370   -2.6892 H         1 <0>         0.0000
     25 H5          1.7776   -1.8476    0.7680 H         1 <0>         0.0000
     26 H6          2.3331   -0.1878    0.4797 H         1 <0>         0.0000
     27 H7         -2.5812   -0.5657    0.5578 H         1 <0>         0.0000
     28 H8         -3.3890    0.9203    0.0115 H         1 <0>         0.0000
     29 H9          0.1663   -1.6830   -1.1408 H         1 <0>         0.0000
     30 H10         0.5531    1.7631    1.0146 H         1 <0>         0.0000
     31 H11        -0.5171    2.0530   -1.1470 H         1 <0>         0.0000
     32 H12         5.8818   -2.8225   -2.8501 H         1 <0>         0.0000
     33 H13         5.2288   -2.8194   -4.5069 H         1 <0>         0.0000
     34 H14         5.5674   -1.2892   -3.6999 H         1 <0>         0.0000
     35 H15         1.7028    0.9443    5.1328 H         1 <0>         0.0000
     36 H16         2.6890   -0.5071    4.8723 H         1 <0>         0.0000
     37 H17         3.3877    1.0937    4.5981 H         1 <0>         0.0000
     38 H18         2.7774    0.0097    2.4153 H         1 <0>         0.0000
     39 H19         1.7786    1.4565    2.6902 H         1 <0>         0.0000
@<TRIPOS>BOND
     1    1    7 1
     2    1   13 2
     3    1   18 1
     4    2   10 1
     5    2   13 1
     6    2   14 2
     7    3    6 1
     8    3    8 1
     9    3   21 1
    10    3   22 1
    11    4    7 1
    12    4    9 1
    13    4   23 1
    14    4   24 1
    15    5    7 1
    16    5   15 1
    17    5   25 1
    18    5   26 1
    19    6   19 1
    20    6   27 1
    21    6   28 1
    22    7   29 1
    23    8    9 1
    24    8   15 1
    25    8   30 1
    26    9   19 1
    27    9   31 1
    28   10   32 1
    29   10   33 1
    30   10   34 1
    31   11   12 1
    32   11   35 1
    33   11   36 1
    34   11   37 1
    35   12   20 1
    36   12   38 1
    37   12   39 1
    38   14   18 1
    39   15   20 1
    40   16   20 2
    41   17   20 2
