@<TRIPOS>MOLECULE
*****
   67    69     0     0     0
SMALL
NO_CHARGES

@<TRIPOS>ATOM
      1 C1          8.1019    0.4816    2.1356 C.ar      1 <0>         0.0000
      2 C2          3.2677   -1.1676    8.3635 C.ar      1 <0>         0.0000
      3 C3          7.3033    1.1601    3.0639 C.ar      1 <0>         0.0000
      4 C4          7.6138   -0.6786    1.5276 C.ar      1 <0>         0.0000
      5 C5          3.5408    0.0417    7.7115 C.ar      1 <0>         0.0000
      6 C6          2.6125   -2.1907    7.6731 C.ar      1 <0>         0.0000
      7 C7          6.0322    0.6792    3.3867 C.ar      1 <0>         0.0000
      8 C8          6.3410   -1.1584    1.8549 C.ar      1 <0>         0.0000
      9 C9          3.1595    0.2234    6.3810 C.ar      1 <0>         0.0000
     10 C10         2.2341   -2.0048    6.3379 C.ar      1 <0>         0.0000
     11 C11         5.5417   -0.4931    2.7929 C.ar      1 <0>         0.0000
     12 C12         2.5006   -0.7985    5.6804 C.ar      1 <0>         0.0000
     13 C13         3.7548    3.8334    0.8776 C.2       1 <0>         0.0000
     14 C14         7.2363    4.2853    0.0735 C.3       1 <0>         0.0000
     15 C15         6.0119    4.8661    0.7982 C.3       1 <0>         0.0000
     16 C16         5.4635    3.1550   -0.8846 C.3       1 <0>         0.0000
     17 C17         6.2107    4.8240    2.3165 C.3       1 <0>         0.0000
     18 C18         5.6914    6.2879    0.3133 C.3       1 <0>         0.0000
     19 C19         4.5988    3.3913   -2.1208 C.3       1 <0>         0.0000
     20 C20         5.6611    1.6672   -0.5837 C.3       1 <0>         0.0000
     21 C21         0.9091    1.8064   -0.0778 C.3       1 <0>         0.0000
     22 C22         4.2075   -1.0716    3.2197 C.3       1 <0>         0.0000
     23 C23         2.0762   -0.5769    4.2430 C.3       1 <0>         0.0000
     24 C24         1.9324    1.7942    2.2831 C.3       1 <0>         0.0000
     25 C25         2.6999    0.4766    2.1316 C.3       1 <0>         0.0000
     26 C26         1.7290    2.5534    0.9672 C.3       1 <0>         0.0000
     27 N1          4.9898    3.9059    0.3162 N.am      1 <0>         0.0000
     28 N2          3.1679   -0.0586    3.4143 N.3       1 <0>         0.0000
     29 O1          3.3399    4.5692    1.7685 O.2       1 <0>         0.0000
     30 O2          6.7300    3.7717   -1.1532 O.3       1 <0>         0.0000
     31 O3          3.0131    2.8209    0.3372 O.3       1 <0>         0.0000
     32 H1          9.0901    0.8580    1.8835 H         1 <0>         0.0000
     33 H2          3.5666   -1.3106    9.3988 H         1 <0>         0.0000
     34 H3          7.6776    2.0619    3.5418 H         1 <0>         0.0000
     35 H4          8.2189   -1.2049    0.7937 H         1 <0>         0.0000
     36 H5          4.0516    0.8414    8.2424 H         1 <0>         0.0000
     37 H6          2.4014   -3.1347    8.1693 H         1 <0>         0.0000
     38 H7          5.4051    1.2056    4.1002 H         1 <0>         0.0000
     39 H8          5.9662   -2.0607    1.3757 H         1 <0>         0.0000
     40 H9          3.3780    1.1555    5.8670 H         1 <0>         0.0000
     41 H10         1.7327   -2.8083    5.8018 H         1 <0>         0.0000
     42 H11         7.9873    5.0422   -0.1627 H         1 <0>         0.0000
     43 H12         7.6983    3.4876    0.6721 H         1 <0>         0.0000
     44 H13         5.3863    5.3098    2.8380 H         1 <0>         0.0000
     45 H14         7.1438    5.3402    2.5713 H         1 <0>         0.0000
     46 H15         6.2807    3.7900    2.6634 H         1 <0>         0.0000
     47 H16         4.7161    6.6012    0.6934 H         1 <0>         0.0000
     48 H17         5.6769    6.3270   -0.7800 H         1 <0>         0.0000
     49 H18         6.4471    6.9938    0.6755 H         1 <0>         0.0000
     50 H19         4.4613    4.4638   -2.2801 H         1 <0>         0.0000
     51 H20         3.6250    2.9133   -2.0144 H         1 <0>         0.0000
     52 H21         5.1097    2.9718   -2.9921 H         1 <0>         0.0000
     53 H22         6.2852    1.5290    0.3002 H         1 <0>         0.0000
     54 H23         6.1525    1.1922   -1.4378 H         1 <0>         0.0000
     55 H24         4.7026    1.1775   -0.4100 H         1 <0>         0.0000
     56 H25         1.4082    0.8861   -0.3939 H         1 <0>         0.0000
     57 H26        -0.0707    1.5431    0.3333 H         1 <0>         0.0000
     58 H27         0.7559    2.4328   -0.9613 H         1 <0>         0.0000
     59 H28         3.8909   -1.8458    2.4959 H         1 <0>         0.0000
     60 H29         4.3507   -1.5840    4.1771 H         1 <0>         0.0000
     61 H30         1.6568   -1.5141    3.8305 H         1 <0>         0.0000
     62 H31         1.2659    0.1575    4.2288 H         1 <0>         0.0000
     63 H32         0.9391    1.6302    2.7171 H         1 <0>         0.0000
     64 H33         2.4800    2.4406    2.9739 H         1 <0>         0.0000
     65 H34         2.0923   -0.2727    1.5899 H         1 <0>         0.0000
     66 H35         3.5855    0.6655    1.5209 H         1 <0>         0.0000
     67 H36         1.2634    3.5154    1.1944 H         1 <0>         0.0000
@<TRIPOS>BOND
     1    1    4 ar
     2    1    3 ar
     3    1   32 1
     4    2    6 ar
     5    2    5 ar
     6    2   33 1
     7    3    7 ar
     8    3   34 1
     9    4    8 ar
    10    4   35 1
    11    5    9 ar
    12    5   36 1
    13    6   10 ar
    14    6   37 1
    15    7   11 ar
    16    7   38 1
    17    8   11 ar
    18    8   39 1
    19    9   12 ar
    20    9   40 1
    21   10   12 ar
    22   10   41 1
    23   11   22 1
    24   12   23 1
    25   13   27 am
    26   13   29 2
    27   13   31 1
    28   14   15 1
    29   14   30 1
    30   14   42 1
    31   14   43 1
    32   15   17 1
    33   15   18 1
    34   15   27 1
    35   16   19 1
    36   16   20 1
    37   16   27 1
    38   16   30 1
    39   17   44 1
    40   17   45 1
    41   17   46 1
    42   18   47 1
    43   18   48 1
    44   18   49 1
    45   19   50 1
    46   19   51 1
    47   19   52 1
    48   20   53 1
    49   20   54 1
    50   20   55 1
    51   21   26 1
    52   21   56 1
    53   21   57 1
    54   21   58 1
    55   22   28 1
    56   22   59 1
    57   22   60 1
    58   23   28 1
    59   23   61 1
    60   23   62 1
    61   24   25 1
    62   24   26 1
    63   24   63 1
    64   24   64 1
    65   25   28 1
    66   25   65 1
    67   25   66 1
    68   26   31 1
    69   26   67 1
