@<TRIPOS>MOLECULE
*****
   51    54     0     0     0
SMALL
NO_CHARGES

@<TRIPOS>ATOM
      1 C1          3.9111    0.0679   -3.4129 C.ar      1 <0>         0.0000
      2 C2          0.1212   -2.2204    0.2743 C.ar      1 <0>         0.0000
      3 C3          5.0261    0.7953   -3.0518 C.ar      1 <0>         0.0000
      4 C4          2.6271    0.3960   -2.9144 C.ar      1 <0>         0.0000
      5 C5          1.3933   -2.7784    0.3847 C.ar      1 <0>         0.0000
      6 C6          2.3343   -0.5524    0.2877 C.ar      1 <0>         0.0000
      7 C7          3.5127    3.4855   -0.9814 C.ar      1 <0>         0.0000
      8 C8          3.5777    2.2825   -1.7330 C.ar      1 <0>         0.0000
      9 C9         -0.0811   -0.8358    0.1563 C.ar      1 <0>         0.0000
     10 C10         1.0509   -0.0024    0.1562 C.ar      1 <0>         0.0000
     11 C11         4.8754    1.9196   -2.1999 C.ar      1 <0>         0.0000
     12 C12         2.4453    1.4801   -2.0720 C.ar      1 <0>         0.0000
     13 C13         2.4998   -1.9281    0.3958 C.ar      1 <0>         0.0000
     14 C14         5.7908    3.7183   -1.0996 C.ar      1 <0>         0.0000
     15 C15        -1.5446    1.2240   -0.2095 C.3       1 <0>         0.0000
     16 C16         0.9603    1.4898   -0.1081 C.3       1 <0>         0.0000
     17 C17        -1.5113   -0.2882    0.1196 C.3       1 <0>         0.0000
     18 C18        -0.3890    2.0392    0.3826 C.3       1 <0>         0.0000
     19 C19         6.9906    4.5208   -0.6785 C.3       1 <0>         0.0000
     20 C20        -2.1714   -0.5517    1.4953 C.3       1 <0>         0.0000
     21 C21        -2.3463   -0.9965   -0.9703 C.3       1 <0>         0.0000
     22 C22        -0.5832    3.5350    0.0290 C.3       1 <0>         0.0000
     23 N1          4.5789    4.1931   -0.6656 N.ar      1 <0>         0.0000
     24 N2          5.9773    2.6506   -1.8535 N.ar      1 <0>         0.0000
     25 N3          1.1643    1.8012   -1.5475 N.pl3     1 <0>         0.0000
     26 O1         -0.3138    1.9562    1.8020 O.3       1 <0>         0.0000
     27 F1         -1.6233    4.0313    0.7676 F         1 <0>         0.0000
     28 F2          0.4976    4.2814    0.3331 F         1 <0>         0.0000
     29 F3         -0.8953    3.7571   -1.2629 F         1 <0>         0.0000
     30 Cl1         4.1152   -2.5996    0.5392 Cl        1 <0>         0.0000
     31 H1          4.0155   -0.7961   -4.0639 H         1 <0>         0.0000
     32 H2         -0.7321   -2.8918    0.2896 H         1 <0>         0.0000
     33 H3          6.0216    0.5382   -3.3992 H         1 <0>         0.0000
     34 H4          1.7789   -0.2371   -3.1644 H         1 <0>         0.0000
     35 H5          1.5247   -3.8524    0.4704 H         1 <0>         0.0000
     36 H6          3.2054    0.0949    0.2977 H         1 <0>         0.0000
     37 H7          2.5503    3.8779   -0.6637 H         1 <0>         0.0000
     38 H8         -1.5315    1.3610   -1.2952 H         1 <0>         0.0000
     39 H9         -2.5004    1.6414    0.1260 H         1 <0>         0.0000
     40 H10         1.7402    2.0026    0.4553 H         1 <0>         0.0000
     41 H11         7.0426    4.5703    0.4142 H         1 <0>         0.0000
     42 H12         7.9058    4.0754   -1.0699 H         1 <0>         0.0000
     43 H13         6.8975    5.5505   -1.0390 H         1 <0>         0.0000
     44 H14        -3.1854   -0.1354    1.5193 H         1 <0>         0.0000
     45 H15        -1.5860   -0.1099    2.3036 H         1 <0>         0.0000
     46 H16        -2.2489   -1.6258    1.6873 H         1 <0>         0.0000
     47 H17        -3.3426   -0.5450   -1.0358 H         1 <0>         0.0000
     48 H18        -2.4830   -2.0592   -0.7538 H         1 <0>         0.0000
     49 H19        -1.8686   -0.9121   -1.9523 H         1 <0>         0.0000
     50 H20         0.4628    1.3043   -2.0908 H         1 <0>         0.0000
     51 H21        -1.1516    2.2777    2.1745 H         1 <0>         0.0000
@<TRIPOS>BOND
     1    1    3 ar
     2    1    4 ar
     3    1   31 1
     4    2    5 ar
     5    2    9 ar
     6    2   32 1
     7    3   11 ar
     8    3   33 1
     9    4   12 ar
    10    4   34 1
    11    5   13 ar
    12    5   35 1
    13    6   10 ar
    14    6   13 ar
    15    6   36 1
    16    7    8 ar
    17    7   23 ar
    18    7   37 1
    19    8   11 ar
    20    8   12 ar
    21    9   10 ar
    22    9   17 1
    23   10   16 1
    24   11   24 ar
    25   12   25 1
    26   13   30 1
    27   14   19 1
    28   14   23 ar
    29   14   24 ar
    30   15   17 1
    31   15   18 1
    32   15   38 1
    33   15   39 1
    34   16   18 1
    35   16   25 1
    36   16   40 1
    37   17   20 1
    38   17   21 1
    39   18   22 1
    40   18   26 1
    41   19   41 1
    42   19   42 1
    43   19   43 1
    44   20   44 1
    45   20   45 1
    46   20   46 1
    47   21   47 1
    48   21   48 1
    49   21   49 1
    50   22   27 1
    51   22   28 1
    52   22   29 1
    53   25   50 1
    54   26   51 1
