@<TRIPOS>MOLECULE
*****
   66    70     0     0     0
SMALL
NO_CHARGES

@<TRIPOS>ATOM
      1 C1          6.5981   -4.1861    2.8570 C.ar      1 <0>         0.0000
      2 C2          8.0262   -2.4224    2.0403 C.ar      1 <0>         0.0000
      3 C3          4.4146   -2.8265    1.2630 C.ar      1 <0>         0.0000
      4 C4          0.2533   -1.8714    4.4445 C.ar      1 <0>         0.0000
      5 C5          7.7178   -4.9061    3.2742 C.ar      1 <0>         0.0000
      6 C6          9.1480   -3.1329    2.4569 C.ar      1 <0>         0.0000
      7 C7          3.2697   -2.1325    0.8599 C.ar      1 <0>         0.0000
      8 C8          0.5211   -1.7141    3.0891 C.ar      1 <0>         0.0000
      9 C9          5.5000   -0.7646    1.9116 C.ar      1 <0>         0.0000
     10 C10        -0.3237    0.5589    3.2324 C.ar      1 <0>         0.0000
     11 C11         6.7277   -2.9330    2.2334 C.ar      1 <0>         0.0000
     12 C12         5.5351   -2.1697    1.8016 C.ar      1 <0>         0.0000
     13 C13        -0.3022   -0.8361    5.2142 C.ar      1 <0>         0.0000
     14 C14         4.3662   -0.0634    1.5296 C.ar      1 <0>         0.0000
     15 C15        -0.5846    0.3991    4.6008 C.ar      1 <0>         0.0000
     16 C16         8.9962   -4.3795    3.0774 C.ar      1 <0>         0.0000
     17 C17         3.2483   -0.7468    1.0295 C.ar      1 <0>         0.0000
     18 C18         0.2229   -0.4855    2.4916 C.ar      1 <0>         0.0000
     19 C19         0.6411    3.2101    4.5372 C.2       1 <0>         0.0000
     20 C20        -0.6511   -1.1141    6.6643 C.3       1 <0>         0.0000
     21 C21        -0.9743    0.1408    7.4801 C.3       1 <0>         0.0000
     22 C22        -1.8649    1.0891    6.6718 C.3       1 <0>         0.0000
     23 C23         2.5915    1.4999    1.3258 C.3       1 <0>         0.0000
     24 C24        -1.1605    1.5677    5.3902 C.3       1 <0>         0.0000
     25 C25         4.1332    1.4380    1.4723 C.3       1 <0>         0.0000
     26 C26         4.6130    2.1878    2.7203 C.3       1 <0>         0.0000
     27 C27         4.8094    2.0050    0.2055 C.3       1 <0>         0.0000
     28 C28        -0.0653    2.6138    5.7415 C.3       1 <0>         0.0000
     29 C29        10.2231   -5.1237    3.5234 C.3       1 <0>         0.0000
     30 N1          2.2262    0.1900    0.7042 N.pl3     1 <0>         0.0000
     31 O1          1.8108    3.0442    4.2770 O.2       1 <0>         0.0000
     32 O2          0.4509   -1.5087    0.0639 O.2       1 <0>         0.0000
     33 O3         -0.1333    0.9691    0.3219 O.2       1 <0>         0.0000
     34 O4         -0.1302    3.9733    3.7070 O.3       1 <0>         0.0000
     35 F1          9.9307   -6.3194    4.0891 F         1 <0>         0.0000
     36 F2         11.0719   -5.3704    2.4889 F         1 <0>         0.0000
     37 F3         10.9403   -4.4167    4.4398 F         1 <0>         0.0000
     38 S1          0.5861   -0.2272    0.7547 S.o2      1 <0>         0.0000
     39 H1          5.6078   -4.5912    3.0433 H         1 <0>         0.0000
     40 H2          8.1585   -1.4712    1.5331 H         1 <0>         0.0000
     41 H3          4.4461   -3.9030    1.1198 H         1 <0>         0.0000
     42 H4          0.4639   -2.8270    4.9199 H         1 <0>         0.0000
     43 H5          7.5958   -5.8681    3.7611 H         1 <0>         0.0000
     44 H6         10.1414   -2.7257    2.2908 H         1 <0>         0.0000
     45 H7          2.4318   -2.6524    0.4116 H         1 <0>         0.0000
     46 H8          0.9288   -2.5282    2.5010 H         1 <0>         0.0000
     47 H9          6.3504   -0.2318    2.3290 H         1 <0>         0.0000
     48 H10        -0.5636    1.4887    2.7248 H         1 <0>         0.0000
     49 H11        -1.5244   -1.7804    6.6725 H         1 <0>         0.0000
     50 H12         0.1615   -1.6783    7.1348 H         1 <0>         0.0000
     51 H13        -1.4737   -0.1435    8.4120 H         1 <0>         0.0000
     52 H14        -0.0476    0.6486    7.7692 H         1 <0>         0.0000
     53 H15        -2.7868    0.5646    6.3920 H         1 <0>         0.0000
     54 H16        -2.1615    1.9531    7.2773 H         1 <0>         0.0000
     55 H17         2.1262    1.5971    2.3114 H         1 <0>         0.0000
     56 H18         2.2486    2.3152    0.6897 H         1 <0>         0.0000
     57 H19        -1.9132    2.0587    4.7594 H         1 <0>         0.0000
     58 H20         4.3185    3.2407    2.6762 H         1 <0>         0.0000
     59 H21         5.7049    2.1456    2.7972 H         1 <0>         0.0000
     60 H22         4.1816    1.7623    3.6295 H         1 <0>         0.0000
     61 H23         4.6116    3.0790    0.1160 H         1 <0>         0.0000
     62 H24         4.4349    1.5084   -0.6951 H         1 <0>         0.0000
     63 H25         5.8936    1.8587    0.2486 H         1 <0>         0.0000
     64 H26        -0.5265    3.4253    6.3196 H         1 <0>         0.0000
     65 H27         0.7091    2.1582    6.3583 H         1 <0>         0.0000
     66 H28        -1.0407    4.0234    4.0446 H         1 <0>         0.0000
@<TRIPOS>BOND
     1    1    5 ar
     2    1   11 ar
     3    1   39 1
     4    2    6 ar
     5    2   11 ar
     6    2   40 1
     7    3    7 ar
     8    3   12 ar
     9    3   41 1
    10    4    8 ar
    11    4   13 ar
    12    4   42 1
    13    5   16 ar
    14    5   43 1
    15    6   16 ar
    16    6   44 1
    17    7   17 ar
    18    7   45 1
    19    8   18 ar
    20    8   46 1
    21    9   12 ar
    22    9   14 ar
    23    9   47 1
    24   10   15 ar
    25   10   18 ar
    26   10   48 1
    27   11   12 1
    28   13   15 ar
    29   13   20 1
    30   14   17 ar
    31   14   25 1
    32   15   24 1
    33   16   29 1
    34   17   30 1
    35   18   38 1
    36   19   28 1
    37   19   31 2
    38   19   34 1
    39   20   21 1
    40   20   49 1
    41   20   50 1
    42   21   22 1
    43   21   51 1
    44   21   52 1
    45   22   24 1
    46   22   53 1
    47   22   54 1
    48   23   25 1
    49   23   30 1
    50   23   55 1
    51   23   56 1
    52   24   28 1
    53   24   57 1
    54   25   26 1
    55   25   27 1
    56   26   58 1
    57   26   59 1
    58   26   60 1
    59   27   61 1
    60   27   62 1
    61   27   63 1
    62   28   64 1
    63   28   65 1
    64   29   35 1
    65   29   36 1
    66   29   37 1
    67   30   38 1
    68   32   38 2
    69   33   38 2
    70   34   66 1
