@<TRIPOS>MOLECULE
*****
   67    70     0     0     0
SMALL
NO_CHARGES

@<TRIPOS>ATOM
      1 C1          8.4082   -4.4734   -0.9359 C.ar      1 <0>         0.0000
      2 C2          7.1485   -3.9013   -1.1137 C.ar      1 <0>         0.0000
      3 C3          4.1525   -2.8063    0.8021 C.ar      1 <0>         0.0000
      4 C4          4.1993   -3.3927   -1.5347 C.ar      1 <0>         0.0000
      5 C5          2.8945   -2.2392    0.6372 C.ar      1 <0>         0.0000
      6 C6          2.9405   -2.8178   -1.7037 C.ar      1 <0>         0.0000
      7 C7          8.7121   -5.1714    0.2344 C.ar      1 <0>         0.0000
      8 C8          6.4910   -4.6783    1.0837 C.ar      1 <0>         0.0000
      9 C9          1.3457   -0.3416   -2.8991 C.ar      1 <0>         0.0000
     10 C10        -1.1749   -0.9958   -3.8783 C.ar      1 <0>         0.0000
     11 C11         4.8329   -3.3946   -0.2817 C.ar      1 <0>         0.0000
     12 C12         6.1729   -4.0037   -0.1057 C.ar      1 <0>         0.0000
     13 C13         2.2668   -2.2269   -0.6216 C.ar      1 <0>         0.0000
     14 C14         0.4971   -1.1630   -2.1443 C.ar      1 <0>         0.0000
     15 C15        -0.7723   -1.5053   -2.6425 C.ar      1 <0>         0.0000
     16 C16         7.7496   -5.2692    1.2498 C.ar      1 <0>         0.0000
     17 C17         0.9378    0.1671   -4.1306 C.ar      1 <0>         0.0000
     18 C18        -0.3447   -0.1513   -4.6197 C.ar      1 <0>         0.0000
     19 C19         0.9191   -1.6308   -0.7986 C.2       1 <0>         0.0000
     20 C20        -1.4976   -0.0811    1.1289 C.2       1 <0>         0.0000
     21 C21        -1.6508   -2.4101   -1.8212 C.3       1 <0>         0.0000
     22 C22        -2.1657   -1.7351   -0.5413 C.3       1 <0>         0.0000
     23 C23        -2.7577   -2.7665    0.4266 C.3       1 <0>         0.0000
     24 C24        -0.8275    1.0812    3.1705 C.3       1 <0>         0.0000
     25 C25         2.3206    0.4333   -6.0338 C.3       1 <0>         0.0000
     26 C26        -1.0143    1.7357   -5.8890 C.3       1 <0>         0.0000
     27 C27         6.7975   -8.3158    1.7197 C.3       1 <0>         0.0000
     28 N1          0.1818   -1.5270    0.2640 N.2       1 <0>         0.0000
     29 N2         -1.0882   -0.9307    0.0870 N.am      1 <0>         0.0000
     30 N3          8.0760   -5.9546    2.4553 N.pl3     1 <0>         0.0000
     31 N4         -0.4960    0.3282    1.9701 N.am      1 <0>         0.0000
     32 O1         -2.6643    0.3109    1.2152 O.2       1 <0>         0.0000
     33 O2          7.9042   -7.8342    4.0981 O.2       1 <0>         0.0000
     34 O3          5.7852   -6.5696    3.4220 O.2       1 <0>         0.0000
     35 O4          1.7904    1.0020   -4.8250 O.3       1 <0>         0.0000
     36 O5         -0.7898    0.3140   -5.8370 O.3       1 <0>         0.0000
     37 S1          7.0747   -7.1718    3.0917 S.o2      1 <0>         0.0000
     38 H1          9.1606   -4.3790   -1.7143 H         1 <0>         0.0000
     39 H2          6.9323   -3.3457   -2.0211 H         1 <0>         0.0000
     40 H3          4.6268   -2.7719    1.7787 H         1 <0>         0.0000
     41 H4          4.6810   -3.8729   -2.3820 H         1 <0>         0.0000
     42 H5          2.3848   -1.7930    1.4842 H         1 <0>         0.0000
     43 H6          2.4682   -2.8471   -2.6804 H         1 <0>         0.0000
     44 H7          9.6894   -5.6322    0.3620 H         1 <0>         0.0000
     45 H8          5.7574   -4.7721    1.8760 H         1 <0>         0.0000
     46 H9          2.3334   -0.0743   -2.5356 H         1 <0>         0.0000
     47 H10        -2.1532   -1.2361   -4.2866 H         1 <0>         0.0000
     48 H11        -2.5156   -2.7433   -2.4018 H         1 <0>         0.0000
     49 H12        -1.0898   -3.3116   -1.5467 H         1 <0>         0.0000
     50 H13        -2.9322   -1.0046   -0.8056 H         1 <0>         0.0000
     51 H14        -1.9825   -3.4590    0.7713 H         1 <0>         0.0000
     52 H15        -3.5411   -3.3484   -0.0719 H         1 <0>         0.0000
     53 H16        -3.2010   -2.2680    1.2911 H         1 <0>         0.0000
     54 H17         0.0870    1.5249    3.5729 H         1 <0>         0.0000
     55 H18        -1.2943    0.4568    3.9438 H         1 <0>         0.0000
     56 H19        -1.5254    1.8787    2.9118 H         1 <0>         0.0000
     57 H20         2.9740    1.1936   -6.4661 H         1 <0>         0.0000
     58 H21         1.5213    0.1834   -6.7384 H         1 <0>         0.0000
     59 H22         2.9062   -0.4661   -5.8060 H         1 <0>         0.0000
     60 H23        -1.3756    1.9464   -6.8972 H         1 <0>         0.0000
     61 H24        -0.0910    2.2897   -5.6973 H         1 <0>         0.0000
     62 H25        -1.7776    2.0240   -5.1569 H         1 <0>         0.0000
     63 H26         6.1118   -9.0814    2.0867 H         1 <0>         0.0000
     64 H27         6.3484   -7.7668    0.8913 H         1 <0>         0.0000
     65 H28         7.7533   -8.7579    1.4358 H         1 <0>         0.0000
     66 H29         9.0491   -6.2399    2.5377 H         1 <0>         0.0000
     67 H30         0.3410   -0.2419    1.9612 H         1 <0>         0.0000
@<TRIPOS>BOND
     1    1    2 ar
     2    1    7 ar
     3    1   38 1
     4    2   12 ar
     5    2   39 1
     6    3    5 ar
     7    3   11 ar
     8    3   40 1
     9    4    6 ar
    10    4   11 ar
    11    4   41 1
    12    5   13 ar
    13    5   42 1
    14    6   13 ar
    15    6   43 1
    16    7   16 ar
    17    7   44 1
    18    8   12 ar
    19    8   16 ar
    20    8   45 1
    21    9   14 ar
    22    9   17 ar
    23    9   46 1
    24   10   15 ar
    25   10   18 ar
    26   10   47 1
    27   11   12 1
    28   13   19 1
    29   14   15 ar
    30   14   19 1
    31   15   21 1
    32   16   30 1
    33   17   18 ar
    34   17   35 1
    35   18   36 1
    36   19   28 2
    37   20   29 am
    38   20   31 am
    39   20   32 2
    40   21   22 1
    41   21   48 1
    42   21   49 1
    43   22   23 1
    44   22   29 1
    45   22   50 1
    46   23   51 1
    47   23   52 1
    48   23   53 1
    49   24   31 1
    50   24   54 1
    51   24   55 1
    52   24   56 1
    53   25   35 1
    54   25   57 1
    55   25   58 1
    56   25   59 1
    57   26   36 1
    58   26   60 1
    59   26   61 1
    60   26   62 1
    61   27   37 1
    62   27   63 1
    63   27   64 1
    64   27   65 1
    65   28   29 1
    66   30   37 1
    67   30   66 1
    68   31   67 1
    69   33   37 2
    70   34   37 2
