@<TRIPOS>MOLECULE
*****
   65    67     0     0     0
SMALL
NO_CHARGES

@<TRIPOS>ATOM
      1 C1          3.3510  -10.1339    7.0901 C.1       1 <0>         0.0000
      2 C2          3.4590   -8.6094    5.1907 C.ar      1 <0>         0.0000
      3 C3          3.0415   -7.4731    4.5031 C.ar      1 <0>         0.0000
      4 C4          1.4805   -6.9763    6.2931 C.ar      1 <0>         0.0000
      5 C5          2.8900   -8.9442    6.4293 C.ar      1 <0>         0.0000
      6 C6          1.8889   -8.1163    6.9773 C.ar      1 <0>         0.0000
      7 C7          2.0581   -6.6543    5.0614 C.ar      1 <0>         0.0000
      8 C8          0.2579   -5.2410    4.1180 C.2       1 <0>         0.0000
      9 C9          2.4311   -4.4477    3.8892 C.2       1 <0>         0.0000
     10 C10         8.0764    0.5402    1.1160 C.2       1 <0>         0.0000
     11 C11         6.4441   -1.0040    2.1127 C.3       1 <0>         0.0000
     12 C12         5.6306    0.6336    0.4945 C.3       1 <0>         0.0000
     13 C13         5.2783   -0.6529    3.0317 C.3       1 <0>         0.0000
     14 C14         4.4774    0.9639    1.4440 C.3       1 <0>         0.0000
     15 C15         0.1958   -3.9211    3.3509 C.3       1 <0>         0.0000
     16 C16        -0.6649   -2.9111    4.1228 C.3       1 <0>         0.0000
     17 C17        -0.3695   -4.1872    1.9456 C.3       1 <0>         0.0000
     18 C18        10.0960    3.2347   -0.8666 C.3       1 <0>         0.0000
     19 C19         8.3531    1.6976    0.1548 C.3       1 <0>         0.0000
     20 C20         9.8343    2.0788    0.1046 C.3       1 <0>         0.0000
     21 C21         2.3718   -1.1952    3.7391 C.3       1 <0>         0.0000
     22 C22         2.1003   -2.2988    2.7096 C.3       1 <0>         0.0000
     23 C23         2.9464    0.0649    3.0822 C.3       1 <0>         0.0000
     24 C24         1.2583   -8.4569    8.3098 C.3       1 <0>         0.0000
     25 N1          3.7538  -11.1072    7.5863 N.1       1 <0>         0.0000
     26 N2          1.6043   -5.4961    4.3708 N.am      1 <0>         0.0000
     27 N3          1.6148   -3.5396    3.3095 N.pl3     1 <0>         0.0000
     28 N4          6.7721    0.1239    1.2428 N.am      1 <0>         0.0000
     29 N5          4.1192   -0.2027    2.2493 N.3       1 <0>         0.0000
     30 O1         -0.6847   -5.9388    4.4369 O.2       1 <0>         0.0000
     31 O2          8.9877    0.0094    1.7545 O.2       1 <0>         0.0000
     32 F1          0.3372   -7.5364    8.6778 F         1 <0>         0.0000
     33 F2          0.6339   -9.6568    8.2729 F         1 <0>         0.0000
     34 F3          2.1827   -8.5147    9.2968 F         1 <0>         0.0000
     35 S1          4.0836   -4.3751    4.0418 S.2       1 <0>         0.0000
     36 H1          4.2255   -9.2513    4.7696 H         1 <0>         0.0000
     37 H2          3.4801   -7.2202    3.5456 H         1 <0>         0.0000
     38 H3          0.7102   -6.3417    6.7121 H         1 <0>         0.0000
     39 H4          7.3323   -1.2550    2.6910 H         1 <0>         0.0000
     40 H5          6.1702   -1.8724    1.4979 H         1 <0>         0.0000
     41 H6          5.2933   -0.1270   -0.2246 H         1 <0>         0.0000
     42 H7          5.9052    1.5268   -0.0638 H         1 <0>         0.0000
     43 H8          5.0091   -1.5479    3.5965 H         1 <0>         0.0000
     44 H9          5.5976    0.1259    3.7503 H         1 <0>         0.0000
     45 H10         4.7701    1.8229    2.0789 H         1 <0>         0.0000
     46 H11         3.6058    1.2672    0.8532 H         1 <0>         0.0000
     47 H12        -0.7301   -1.9666    3.5754 H         1 <0>         0.0000
     48 H13        -0.2473   -2.7146    5.1139 H         1 <0>         0.0000
     49 H14        -1.6731   -3.3154    4.2416 H         1 <0>         0.0000
     50 H15        -0.4504   -3.2553    1.3793 H         1 <0>         0.0000
     51 H16        -1.3658   -4.6270    2.0347 H         1 <0>         0.0000
     52 H17         0.2722   -4.8783    1.3920 H         1 <0>         0.0000
     53 H18         9.5476    4.1378   -0.5725 H         1 <0>         0.0000
     54 H19         9.7875    2.9786   -1.8874 H         1 <0>         0.0000
     55 H20        11.1606    3.4895   -0.8970 H         1 <0>         0.0000
     56 H21         7.7568    2.5694    0.4543 H         1 <0>         0.0000
     57 H22         8.0059    1.4247   -0.8503 H         1 <0>         0.0000
     58 H23        10.4209    1.2009   -0.1824 H         1 <0>         0.0000
     59 H24        10.1701    2.3454    1.1113 H         1 <0>         0.0000
     60 H25         3.0512   -1.5837    4.5016 H         1 <0>         0.0000
     61 H26         1.4451   -0.9215    4.2541 H         1 <0>         0.0000
     62 H27         1.3541   -1.9673    1.9821 H         1 <0>         0.0000
     63 H28         3.0154   -2.5198    2.1588 H         1 <0>         0.0000
     64 H29         3.1654    0.8110    3.8698 H         1 <0>         0.0000
     65 H30         2.1804    0.5095    2.4343 H         1 <0>         0.0000
@<TRIPOS>BOND
     1    1    5 1
     2    1   25 3
     3    2    3 ar
     4    2    5 ar
     5    2   36 1
     6    3    7 ar
     7    3   37 1
     8    4    6 ar
     9    4    7 ar
    10    4   38 1
    11    5    6 ar
    12    6   24 1
    13    7   26 1
    14    8   15 1
    15    8   26 am
    16    8   30 2
    17    9   26 1
    18    9   27 1
    19    9   35 2
    20   10   19 1
    21   10   28 am
    22   10   31 2
    23   11   13 1
    24   11   28 1
    25   11   39 1
    26   11   40 1
    27   12   14 1
    28   12   28 1
    29   12   41 1
    30   12   42 1
    31   13   29 1
    32   13   43 1
    33   13   44 1
    34   14   29 1
    35   14   45 1
    36   14   46 1
    37   15   16 1
    38   15   17 1
    39   15   27 1
    40   16   47 1
    41   16   48 1
    42   16   49 1
    43   17   50 1
    44   17   51 1
    45   17   52 1
    46   18   20 1
    47   18   53 1
    48   18   54 1
    49   18   55 1
    50   19   20 1
    51   19   56 1
    52   19   57 1
    53   20   58 1
    54   20   59 1
    55   21   22 1
    56   21   23 1
    57   21   60 1
    58   21   61 1
    59   22   27 1
    60   22   62 1
    61   22   63 1
    62   23   29 1
    63   23   64 1
    64   23   65 1
    65   24   32 1
    66   24   33 1
    67   24   34 1
