@<TRIPOS>MOLECULE
*****
   71    76     0     0     0
SMALL
NO_CHARGES

@<TRIPOS>ATOM
      1 C1          6.8487   -0.0798    1.1161 C.ar      1 <0>         0.0000
      2 C2          3.6585   -0.9918    7.0704 C.ar      1 <0>         0.0000
      3 C3          6.2600   -0.1313    2.3792 C.ar      1 <0>         0.0000
      4 C4          4.9789   -0.8576    6.6366 C.ar      1 <0>         0.0000
      5 C5          8.9740   -0.7408    2.0632 C.ar      1 <0>         0.0000
      6 C6          8.1976   -0.4009    0.9386 C.ar      1 <0>         0.0000
      7 C7          2.6128   -0.9833    6.1488 C.ar      1 <0>         0.0000
      8 C8          7.0084   -0.5203    3.5002 C.ar      1 <0>         0.0000
      9 C9          8.3925   -0.8035    3.3198 C.ar      1 <0>         0.0000
     10 C10         2.9500   -0.8153    4.7821 C.ar      1 <0>         0.0000
     11 C11         5.2105   -0.7141    5.2592 C.ar      1 <0>         0.0000
     12 C12         0.2422   -0.8521    5.6450 C.2       1 <0>         0.0000
     13 C13         8.8717   -0.3722   -0.3859 C.2       1 <0>         0.0000
     14 C14         1.7569   -0.7616    0.0771 C.3       1 <0>         0.0000
     15 C15         2.9721   -1.7028    0.3298 C.3       1 <0>         0.0000
     16 C16         1.1074   -0.5471    1.4597 C.3       1 <0>         0.0000
     17 C17         3.0357   -1.8996    1.8598 C.3       1 <0>         0.0000
     18 C18         7.3903   -2.9978   -3.8681 C.3       1 <0>         0.0000
     19 C19         8.6279   -0.8037   -2.8265 C.3       1 <0>         0.0000
     20 C20         6.9268   -1.4498   -1.6794 C.3       1 <0>         0.0000
     21 C21         6.2698   -2.7524   -4.9166 C.3       1 <0>         0.0000
     22 C22         0.6738   -0.2195    4.3237 C.3       1 <0>         0.0000
     23 C23         2.2941   -0.6739    2.4274 C.3       1 <0>         0.0000
     24 C24         7.3693   -1.6317   -3.1454 C.3       1 <0>         0.0000
     25 C25         0.7386    1.3126    4.4763 C.3       1 <0>         0.0000
     26 C26         0.9296   -1.7061    7.8310 C.3       1 <0>         0.0000
     27 C27        10.4646   -1.3798    4.3851 C.3       1 <0>         0.0000
     28 N1          4.2117   -0.6724    4.3692 N.ar      1 <0>         0.0000
     29 N2          1.2611   -1.1841    6.5088 N.am      1 <0>         0.0000
     30 N3          1.9281   -0.8162    3.8465 N.pl3     1 <0>         0.0000
     31 N4          8.0601   -0.5082   -1.4972 N.am      1 <0>         0.0000
     32 N5          6.5219   -0.6194    4.7993 N.pl3     1 <0>         0.0000
     33 O1         -0.9474   -1.0001    5.9173 O.2       1 <0>         0.0000
     34 O2         10.0906   -0.2294   -0.5175 O.2       1 <0>         0.0000
     35 O3          4.8911   -0.5958   -3.8639 O.2       1 <0>         0.0000
     36 O4          6.8831   -0.1184   -5.3982 O.2       1 <0>         0.0000
     37 O5          9.0622   -1.1348    4.4766 O.3       1 <0>         0.0000
     38 S1          6.1953   -0.9823   -4.4258 S.o2      1 <0>         0.0000
     39 H1          6.2503    0.2558    0.2759 H         1 <0>         0.0000
     40 H2          3.4574   -1.1162    8.1290 H         1 <0>         0.0000
     41 H3          5.2209    0.1260    2.5123 H         1 <0>         0.0000
     42 H4          5.8003   -0.8730    7.3467 H         1 <0>         0.0000
     43 H5         10.0260   -0.9492    1.9089 H         1 <0>         0.0000
     44 H6          2.0947    0.1953   -0.3327 H         1 <0>         0.0000
     45 H7          1.0447   -1.1772   -0.6406 H         1 <0>         0.0000
     46 H8          2.8668   -2.6583   -0.1923 H         1 <0>         0.0000
     47 H9          3.8944   -1.2432   -0.0393 H         1 <0>         0.0000
     48 H10         0.5786    0.4079    1.5283 H         1 <0>         0.0000
     49 H11         0.3855   -1.3470    1.6634 H         1 <0>         0.0000
     50 H12         2.4810   -2.7954    2.1631 H         1 <0>         0.0000
     51 H13         4.0522   -1.9898    2.2400 H         1 <0>         0.0000
     52 H14         7.1724   -3.8298   -3.1954 H         1 <0>         0.0000
     53 H15         8.3576   -3.1734   -4.3435 H         1 <0>         0.0000
     54 H16         9.5457   -1.3995   -2.7706 H         1 <0>         0.0000
     55 H17         8.7953    0.0714   -3.4601 H         1 <0>         0.0000
     56 H18         5.9326   -1.0157   -1.5510 H         1 <0>         0.0000
     57 H19         7.0141   -2.3610   -1.0764 H         1 <0>         0.0000
     58 H20         6.5499   -2.8786   -5.9626 H         1 <0>         0.0000
     59 H21         5.3203   -3.2436   -4.6999 H         1 <0>         0.0000
     60 H22        -0.1183   -0.4781    3.6251 H         1 <0>         0.0000
     61 H23         2.9351    0.2125    2.3081 H         1 <0>         0.0000
     62 H24         1.5061    1.6020    5.2010 H         1 <0>         0.0000
     63 H25        -0.2273    1.6973    4.8156 H         1 <0>         0.0000
     64 H26         0.9815    1.7797    3.5174 H         1 <0>         0.0000
     65 H27         1.1478   -0.9689    8.6123 H         1 <0>         0.0000
     66 H28         1.5025   -2.6174    8.0273 H         1 <0>         0.0000
     67 H29        -0.1360   -1.9282    7.8450 H         1 <0>         0.0000
     68 H30        10.7980   -1.5949    5.4010 H         1 <0>         0.0000
     69 H31        10.9941   -0.5002    4.0019 H         1 <0>         0.0000
     70 H32        10.6725   -2.2424    3.7414 H         1 <0>         0.0000
     71 H33         7.2389   -0.8128    5.4872 H         1 <0>         0.0000
@<TRIPOS>BOND
     1    1    3 ar
     2    1    6 ar
     3    1   39 1
     4    2    4 ar
     5    2    7 ar
     6    2   40 1
     7    3    8 ar
     8    3   41 1
     9    4   11 ar
    10    4   42 1
    11    5    6 ar
    12    5    9 ar
    13    5   43 1
    14    6   13 1
    15    7   10 ar
    16    7   29 1
    17    8    9 ar
    18    8   32 1
    19    9   37 1
    20   10   28 ar
    21   10   30 1
    22   11   28 ar
    23   11   32 1
    24   12   22 1
    25   12   29 am
    26   12   33 2
    27   13   31 am
    28   13   34 2
    29   14   15 1
    30   14   16 1
    31   14   44 1
    32   14   45 1
    33   15   17 1
    34   15   46 1
    35   15   47 1
    36   16   23 1
    37   16   48 1
    38   16   49 1
    39   17   23 1
    40   17   50 1
    41   17   51 1
    42   18   21 1
    43   18   24 1
    44   18   52 1
    45   18   53 1
    46   19   24 1
    47   19   31 1
    48   19   54 1
    49   19   55 1
    50   20   24 1
    51   20   31 1
    52   20   56 1
    53   20   57 1
    54   21   38 1
    55   21   58 1
    56   21   59 1
    57   22   25 1
    58   22   30 1
    59   22   60 1
    60   23   30 1
    61   23   61 1
    62   24   38 1
    63   25   62 1
    64   25   63 1
    65   25   64 1
    66   26   29 1
    67   26   65 1
    68   26   66 1
    69   26   67 1
    70   27   37 1
    71   27   68 1
    72   27   69 1
    73   27   70 1
    74   32   71 1
    75   35   38 2
    76   36   38 2
