@<TRIPOS>MOLECULE
*****
   50    54     0     0     0
SMALL
NO_CHARGES

@<TRIPOS>ATOM
      1 C1         -1.0760    4.3336    4.7098 C.ar      1 <0>         0.0000
      2 C2          1.8582   -0.7340   -0.5029 C.ar      1 <0>         0.0000
      3 C3         -1.5443    3.9230    3.4592 C.ar      1 <0>         0.0000
      4 C4          0.7026   -0.0714   -0.0925 C.ar      1 <0>         0.0000
      5 C5         -1.2471    3.5211    5.8348 C.ar      1 <0>         0.0000
      6 C6          4.6868   -2.6729    0.5917 C.ar      1 <0>         0.0000
      7 C7          1.8198    0.4749    1.9819 C.ar      1 <0>         0.0000
      8 C8          4.7245   -1.4067   -1.4379 C.ar      1 <0>         0.0000
      9 C9         -2.3678    1.8709    4.4398 C.ar      1 <0>         0.0000
     10 C10         5.7437   -3.4188    0.0708 C.ar      1 <0>         0.0000
     11 C11         3.0057   -0.8221    0.2978 C.ar      1 <0>         0.0000
     12 C12         4.1575   -1.6287   -0.1774 C.ar      1 <0>         0.0000
     13 C13         2.9786   -0.1820    1.5558 C.ar      1 <0>         0.0000
     14 C14        -2.1964    2.6891    3.3131 C.ar      1 <0>         0.0000
     15 C15         0.6759    0.5339    1.1743 C.ar      1 <0>         0.0000
     16 C16        -1.8956    2.2936    5.6829 C.ar      1 <0>         0.0000
     17 C17         5.7882   -2.2046   -1.8790 C.ar      1 <0>         0.0000
     18 C18         4.1597   -0.1222    2.4332 C.2       1 <0>         0.0000
     19 C19        -1.6650    1.4383    1.1102 C.2       1 <0>         0.0000
     20 C20        -4.1016    1.8003    1.7700 C.3       1 <0>         0.0000
     21 C21        -3.6154    3.0817    1.1638 C.3       1 <0>         0.0000
     22 C22        -2.6466    2.2164    1.9626 C.3       1 <0>         0.0000
     23 C23         6.4342   -1.9835   -3.2243 C.3       1 <0>         0.0000
     24 N1          6.2928   -3.2026   -1.1311 N.ar      1 <0>         0.0000
     25 N2          5.4456    0.0558    1.9982 N.2       1 <0>         0.0000
     26 N3          4.0922   -0.1732    3.7692 N.2       1 <0>         0.0000
     27 N4          6.2027    0.1123    3.0658 N.2       1 <0>         0.0000
     28 N5          5.3740   -0.0245    4.0998 N.pl3     1 <0>         0.0000
     29 N6         -0.4406    1.2170    1.6956 N.am      1 <0>         0.0000
     30 O1         -1.9671    1.0442   -0.0154 O.2       1 <0>         0.0000
     31 Cl1        -2.1207    1.2591    7.0837 Cl        1 <0>         0.0000
     32 H1         -0.5743    5.2915    4.8157 H         1 <0>         0.0000
     33 H2          1.8595   -1.2321   -1.4684 H         1 <0>         0.0000
     34 H3         -1.4068    4.5580    2.5881 H         1 <0>         0.0000
     35 H4         -0.1708   -0.0290   -0.7281 H         1 <0>         0.0000
     36 H5         -0.8887    3.8328    6.8106 H         1 <0>         0.0000
     37 H6          4.2787   -2.9102    1.5699 H         1 <0>         0.0000
     38 H7          1.8249    0.9650    2.9524 H         1 <0>         0.0000
     39 H8          4.3581   -0.5978   -2.0639 H         1 <0>         0.0000
     40 H9         -2.8661    0.9109    4.3433 H         1 <0>         0.0000
     41 H10         6.1695   -4.2379    0.6493 H         1 <0>         0.0000
     42 H11        -4.7398    1.8565    2.6463 H         1 <0>         0.0000
     43 H12        -4.2759    0.9640    1.1018 H         1 <0>         0.0000
     44 H13        -3.4641    3.1025    0.0901 H         1 <0>         0.0000
     45 H14        -3.9204    4.0155    1.6257 H         1 <0>         0.0000
     46 H15         7.5000   -1.7685   -3.0985 H         1 <0>         0.0000
     47 H16         6.3572   -2.8899   -3.8334 H         1 <0>         0.0000
     48 H17         5.9711   -1.1551   -3.7667 H         1 <0>         0.0000
     49 H18         5.6999   -0.0275    5.0603 H         1 <0>         0.0000
     50 H19        -0.3190    1.5952    2.6272 H         1 <0>         0.0000
@<TRIPOS>BOND
     1    1    3 ar
     2    1    5 ar
     3    1   32 1
     4    2    4 ar
     5    2   11 ar
     6    2   33 1
     7    3   14 ar
     8    3   34 1
     9    4   15 ar
    10    4   35 1
    11    5   16 ar
    12    5   36 1
    13    6   10 ar
    14    6   12 ar
    15    6   37 1
    16    7   13 ar
    17    7   15 ar
    18    7   38 1
    19    8   12 ar
    20    8   17 ar
    21    8   39 1
    22    9   14 ar
    23    9   16 ar
    24    9   40 1
    25   10   24 ar
    26   10   41 1
    27   11   12 1
    28   11   13 ar
    29   13   18 1
    30   14   22 1
    31   15   29 1
    32   16   31 1
    33   17   23 1
    34   17   24 ar
    35   18   25 1
    36   18   26 2
    37   19   22 1
    38   19   29 am
    39   19   30 2
    40   20   21 1
    41   20   22 1
    42   20   42 1
    43   20   43 1
    44   21   22 1
    45   21   44 1
    46   21   45 1
    47   23   46 1
    48   23   47 1
    49   23   48 1
    50   25   27 2
    51   26   28 1
    52   27   28 1
    53   28   49 1
    54   29   50 1
