@<TRIPOS>MOLECULE
*****
   55    56     0     0     0
SMALL
NO_CHARGES

@<TRIPOS>ATOM
      1 C1         -1.7319    2.7818    0.4629 C.ar      1 <0>         0.0000
      2 C2         -0.7095    3.2337   -0.3909 C.ar      1 <0>         0.0000
      3 C3         -1.7560    1.4486    0.8520 C.ar      1 <0>         0.0000
      4 C4          0.2684    2.3598   -0.8598 C.ar      1 <0>         0.0000
      5 C5         -0.7707    0.5519    0.3987 C.ar      1 <0>         0.0000
      6 C6          0.2340    1.0144   -0.4698 C.ar      1 <0>         0.0000
      7 C7         -0.7499   -0.8447    0.8742 C.2       1 <0>         0.0000
      8 C8          0.4515   -1.7113    0.4468 C.3       1 <0>         0.0000
      9 C9          0.9538   -1.2389   -0.9622 C.3       1 <0>         0.0000
     10 C10         2.3085   -1.8322   -1.3513 C.3       1 <0>         0.0000
     11 C11        -0.9984   -1.1126   -4.3923 C.3       1 <0>         0.0000
     12 C12        -1.0277   -6.3506    2.9180 C.3       1 <0>         0.0000
     13 C13         3.9626    1.3267    3.3572 C.3       1 <0>         0.0000
     14 C14         0.0113   -3.2002    0.3455 C.3       1 <0>         0.0000
     15 C15         1.5310   -1.5873    1.5618 C.3       1 <0>         0.0000
     16 C16        -0.1099   -1.5127   -2.0532 C.3       1 <0>         0.0000
     17 C17         0.0992   -0.7691   -3.3786 C.3       1 <0>         0.0000
     18 C18        -0.2250   -3.9294    1.6702 C.3       1 <0>         0.0000
     19 C19         2.1613   -0.2109    1.7872 C.3       1 <0>         0.0000
     20 O1         -1.6139   -1.2826    1.6284 O.2       1 <0>         0.0000
     21 O2         -2.0045   -5.5995    0.5573 O.2       1 <0>         0.0000
     22 O3          0.4389   -6.3261    0.6932 O.2       1 <0>         0.0000
     23 O4          2.6752   -0.7812    4.3540 O.2       1 <0>         0.0000
     24 O5          4.5072   -1.1736    2.6166 O.2       1 <0>         0.0000
     25 O6          1.2206    0.2030   -0.9289 O.3       1 <0>         0.0000
     26 S1         -0.7237   -5.6373    1.2855 S.o2      1 <0>         0.0000
     27 S2          3.3818   -0.3696    3.1277 S.o2      1 <0>         0.0000
     28 H1         -2.4923    3.4717    0.8163 H         1 <0>         0.0000
     29 H2         -0.6832    4.2759   -0.6986 H         1 <0>         0.0000
     30 H3         -2.5211    1.0659    1.5207 H         1 <0>         0.0000
     31 H4          1.0552    2.6921   -1.5305 H         1 <0>         0.0000
     32 H5          2.6294   -1.4112   -2.3059 H         1 <0>         0.0000
     33 H6          2.2507   -2.9164   -1.4626 H         1 <0>         0.0000
     34 H7          3.0796   -1.6015   -0.6141 H         1 <0>         0.0000
     35 H8         -1.0135   -2.1853   -4.6157 H         1 <0>         0.0000
     36 H9         -0.8455   -0.5771   -5.3350 H         1 <0>         0.0000
     37 H10        -1.9885   -0.8397   -4.0102 H         1 <0>         0.0000
     38 H11        -1.3193   -7.3878    2.7425 H         1 <0>         0.0000
     39 H12        -0.1085   -6.3094    3.5045 H         1 <0>         0.0000
     40 H13        -1.8393   -5.8037    3.4001 H         1 <0>         0.0000
     41 H14         4.7220    1.2809    4.1399 H         1 <0>         0.0000
     42 H15         4.4016    1.6837    2.4242 H         1 <0>         0.0000
     43 H16         3.1263    1.9511    3.6753 H         1 <0>         0.0000
     44 H17         0.7752   -3.7536   -0.2054 H         1 <0>         0.0000
     45 H18        -0.9134   -3.2576   -0.2305 H         1 <0>         0.0000
     46 H19         2.3241   -2.3119    1.3570 H         1 <0>         0.0000
     47 H20         1.0659   -1.8830    2.5044 H         1 <0>         0.0000
     48 H21        -0.1245   -2.5893   -2.2480 H         1 <0>         0.0000
     49 H22        -1.1072   -1.2637   -1.6726 H         1 <0>         0.0000
     50 H23         0.1069    0.3103   -3.1996 H         1 <0>         0.0000
     51 H24         1.0768   -1.0198   -3.8043 H         1 <0>         0.0000
     52 H25         0.6784   -4.0213    2.2761 H         1 <0>         0.0000
     53 H26        -1.0301   -3.4705    2.2439 H         1 <0>         0.0000
     54 H27         2.7029    0.1631    0.9193 H         1 <0>         0.0000
     55 H28         1.4303    0.5321    2.1140 H         1 <0>         0.0000
@<TRIPOS>BOND
     1    1    2 ar
     2    1    3 ar
     3    1   28 1
     4    2    4 ar
     5    2   29 1
     6    3    5 ar
     7    3   30 1
     8    4    6 ar
     9    4   31 1
    10    5    6 ar
    11    5    7 1
    12    6   25 1
    13    7    8 1
    14    7   20 2
    15    8    9 1
    16    8   14 1
    17    8   15 1
    18    9   10 1
    19    9   16 1
    20    9   25 1
    21   10   32 1
    22   10   33 1
    23   10   34 1
    24   11   17 1
    25   11   35 1
    26   11   36 1
    27   11   37 1
    28   12   26 1
    29   12   38 1
    30   12   39 1
    31   12   40 1
    32   13   27 1
    33   13   41 1
    34   13   42 1
    35   13   43 1
    36   14   18 1
    37   14   44 1
    38   14   45 1
    39   15   19 1
    40   15   46 1
    41   15   47 1
    42   16   17 1
    43   16   48 1
    44   16   49 1
    45   17   50 1
    46   17   51 1
    47   18   26 1
    48   18   52 1
    49   18   53 1
    50   19   27 1
    51   19   54 1
    52   19   55 1
    53   21   26 2
    54   22   26 2
    55   23   27 2
    56   24   27 2
