@<TRIPOS>MOLECULE
*****
   17    17     0     0     0
SMALL
NO_CHARGES

@<TRIPOS>ATOM
      1 C1          2.8745   -1.5530   -0.8019 C.ar      1 <0>         0.0000
      2 C2          1.9416   -0.9307    0.0031 C.ar      1 <0>         0.0000
      3 C3          0.7672   -0.4945   -0.5846 C.ar      1 <0>         0.0000
      4 C4          0.6036   -0.7091   -1.9384 C.ar      1 <0>         0.0000
      5 C5          3.5653   -0.6217    1.7130 C.3       1 <0>         0.0000
      6 C6          3.6380    0.2233    2.9582 C.3       1 <0>         0.0000
      7 N1          2.6878   -1.7498   -2.1242 N.ar      1 <0>         0.0000
      8 N2          1.5337   -1.3207   -2.7018 N.ar      1 <0>         0.0000
      9 O1          2.1981   -0.7670    1.3267 O.3       1 <0>         0.0000
     10 F1          3.1007    1.4431    2.7373 F         1 <0>         0.0000
     11 F2          4.9158    0.4025    3.3544 F         1 <0>         0.0000
     12 F3          2.9593   -0.3460    3.9766 F         1 <0>         0.0000
     13 Cl1        -0.4371    0.2904    0.3708 Cl        1 <0>         0.0000
     14 Cl2        -0.7917   -0.2307   -2.8217 Cl        1 <0>         0.0000
     15 H1          3.8156   -1.9194   -0.4074 H         1 <0>         0.0000
     16 H2          4.1139   -0.1471    0.8941 H         1 <0>         0.0000
     17 H3          3.9868   -1.6144    1.8970 H         1 <0>         0.0000
@<TRIPOS>BOND
     1    1    2 ar
     2    1    7 ar
     3    1   15 1
     4    2    3 ar
     5    2    9 1
     6    3    4 ar
     7    3   13 1
     8    4    8 ar
     9    4   14 1
    10    5    6 1
    11    5    9 1
    12    5   16 1
    13    5   17 1
    14    6   10 1
    15    6   11 1
    16    6   12 1
    17    7    8 ar
