@<TRIPOS>MOLECULE
*****
   27    28     0     0     0
SMALL
NO_CHARGES

@<TRIPOS>ATOM
      1 C1          0.4111    0.4386   -1.2671 C.2       1 <0>         0.0000
      2 C2          0.7640   -0.4723    1.0777 C.2       1 <0>         0.0000
      3 C3          2.6682    0.4488   -0.2301 C.2       1 <0>         0.0000
      4 C4          3.5677    2.7588   -0.8882 C.3       1 <0>         0.0000
      5 C5          4.7567    1.8940   -0.5950 C.3       1 <0>         0.0000
      6 C6          1.1886    0.5185    0.0229 C.3       1 <0>         0.0000
      7 C7          3.4729    1.6710    0.1206 C.3       1 <0>         0.0000
      8 C8         -1.4471   -0.1218    0.1707 C.3       1 <0>         0.0000
      9 C9         -1.9543    1.1955    0.7593 C.3       1 <0>         0.0000
     10 C10        -2.6248   -1.0775   -0.0237 C.3       1 <0>         0.0000
     11 O1          0.9006    0.6970   -2.3625 O.2       1 <0>         0.0000
     12 O2          1.5410   -0.9559    1.8955 O.2       1 <0>         0.0000
     13 O3          3.1958   -0.5585   -0.6990 O.2       1 <0>         0.0000
     14 O4         -0.8918    0.0988   -1.1380 O.3       1 <0>         0.0000
     15 O5         -0.5554   -0.7697    1.0953 O.3       1 <0>         0.0000
     16 H1          3.5767    3.7738   -0.5101 H         1 <0>         0.0000
     17 H2          3.0894    2.6452   -1.8534 H         1 <0>         0.0000
     18 H3          5.0750    1.1986   -1.3621 H         1 <0>         0.0000
     19 H4          5.5658    2.3266   -0.0192 H         1 <0>         0.0000
     20 H5          1.0124    1.5184    0.4374 H         1 <0>         0.0000
     21 H6          3.4032    1.9280    1.1567 H         1 <0>         0.0000
     22 H7         -1.1202    1.8799    0.9000 H         1 <0>         0.0000
     23 H8         -2.4305    1.0090    1.7197 H         1 <0>         0.0000
     24 H9         -2.6772    1.6458    0.0822 H         1 <0>         0.0000
     25 H10        -2.2700   -2.0171   -0.4426 H         1 <0>         0.0000
     26 H11        -3.3496   -0.6337   -0.7032 H         1 <0>         0.0000
     27 H12        -3.1032   -1.2704    0.9344 H         1 <0>         0.0000
@<TRIPOS>BOND
     1    1    6 1
     2    1   11 2
     3    1   14 1
     4    2    6 1
     5    2   12 2
     6    2   15 1
     7    3    6 1
     8    3    7 1
     9    3   13 2
    10    4    5 1
    11    4    7 1
    12    4   16 1
    13    4   17 1
    14    5    7 1
    15    5   18 1
    16    5   19 1
    17    6   20 1
    18    7   21 1
    19    8    9 1
    20    8   10 1
    21    8   14 1
    22    8   15 1
    23    9   22 1
    24    9   23 1
    25    9   24 1
    26   10   25 1
    27   10   26 1
    28   10   27 1
