@<TRIPOS>MOLECULE
*****
   65    69     0     0     0
SMALL
NO_CHARGES

@<TRIPOS>ATOM
      1 C1         -4.5444    1.8466    3.4964 C.ar      1 <0>         0.0000
      2 C2         -2.2047    2.2298    3.8987 C.ar      1 <0>         0.0000
      3 C3          0.1884   -0.3229   -0.5183 C.ar      1 <0>         0.0000
      4 C4         -3.6469   -3.4026   -1.7408 C.ar      1 <0>         0.0000
      5 C5         -5.2517   -1.9710   -0.6373 C.ar      1 <0>         0.0000
      6 C6         -0.8272   -1.2390   -0.2297 C.ar      1 <0>         0.0000
      7 C7         -4.8667    2.8944    4.3658 C.ar      1 <0>         0.0000
      8 C8         -2.5138    3.2803    4.7596 C.ar      1 <0>         0.0000
      9 C9         -4.3512   -3.2933   -2.9467 C.ar      1 <0>         0.0000
     10 C10        -5.9635   -1.8472   -1.8322 C.ar      1 <0>         0.0000
     11 C11        -0.6960    1.2628    1.0983 C.ar      1 <0>         0.0000
     12 C12        -1.7197    0.3588    1.4312 C.ar      1 <0>         0.0000
     13 C13        -3.2091    1.4900    3.2392 C.ar      1 <0>         0.0000
     14 C14        -2.8605    0.3943    2.3212 C.2       1 <0>         0.0000
     15 C15        -4.0840   -2.7520   -0.5822 C.ar      1 <0>         0.0000
     16 C16         0.2654    0.9227    0.1395 C.ar      1 <0>         0.0000
     17 C17        -1.7615   -0.8955    0.7491 C.ar      1 <0>         0.0000
     18 C18        -3.8511    3.6223    4.9976 C.ar      1 <0>         0.0000
     19 C19        -5.4991   -2.5123   -2.9636 C.ar      1 <0>         0.0000
     20 C20        -3.5361   -0.8113    2.1565 C.2       1 <0>         0.0000
     21 C21        -4.8143   -1.3751    2.7878 C.2       1 <0>         0.0000
     22 C22         2.6387   -2.7053    1.2014 C.3       1 <0>         0.0000
     23 C23         2.3705   -2.8241    2.6874 C.3       1 <0>         0.0000
     24 C24         3.1597   -1.6485    2.1483 C.3       1 <0>         0.0000
     25 C25        -5.3800    6.1760    7.1588 C.3       1 <0>         0.0000
     26 C26         1.4367    1.8441   -0.1207 C.3       1 <0>         0.0000
     27 C27        -3.3110   -2.8762    0.7190 C.3       1 <0>         0.0000
     28 C28         2.5227   -0.2861    2.1603 C.3       1 <0>         0.0000
     29 C29        -5.4111    5.0213    6.1694 C.3       1 <0>         0.0000
     30 C30         2.5101    1.8012    0.9806 C.3       1 <0>         0.0000
     31 N1         -2.8551   -1.5915    1.2274 N.pl3     1 <0>         0.0000
     32 O1         -4.6516   -2.3960    3.5005 O.co2     1 <0>         0.0000
     33 O2         -5.8776   -0.7812    2.4532 O.co2     1 <0>         0.0000
     34 O3         -4.0634    4.6770    5.8671 O.3       1 <0>         0.0000
     35 O4          3.1102    0.5160    1.1287 O.3       1 <0>         0.0000
     36 F1         -6.1973   -2.3935   -4.1347 F         1 <0>         0.0000
     37 H1         -5.3364    1.2776    3.0175 H         1 <0>         0.0000
     38 H2         -1.1631    1.9543    3.7616 H         1 <0>         0.0000
     39 H3          0.9449   -0.5775   -1.2569 H         1 <0>         0.0000
     40 H4         -2.7401   -4.0037   -1.7099 H         1 <0>         0.0000
     41 H5         -5.6060   -1.4586    0.2562 H         1 <0>         0.0000
     42 H6         -0.8879   -2.1834   -0.7637 H         1 <0>         0.0000
     43 H7         -5.9131    3.1259    4.5351 H         1 <0>         0.0000
     44 H8         -1.7317    3.8372    5.2697 H         1 <0>         0.0000
     45 H9         -4.0193   -3.7911   -3.8532 H         1 <0>         0.0000
     46 H10        -6.8674   -1.2478   -1.8904 H         1 <0>         0.0000
     47 H11        -0.6471    2.2355    1.5821 H         1 <0>         0.0000
     48 H12         3.3560   -3.3866    0.7513 H         1 <0>         0.0000
     49 H13         1.8053   -2.4268    0.5644 H         1 <0>         0.0000
     50 H14         1.3560   -2.6386    3.0297 H         1 <0>         0.0000
     51 H15         2.9051   -3.5829    3.2525 H         1 <0>         0.0000
     52 H16         4.2312   -1.6532    2.3384 H         1 <0>         0.0000
     53 H17        -4.8574    5.8835    8.0749 H         1 <0>         0.0000
     54 H18        -4.8622    7.0387    6.7280 H         1 <0>         0.0000
     55 H19        -6.4004    6.4769    7.4206 H         1 <0>         0.0000
     56 H20         1.9146    1.5846   -1.0720 H         1 <0>         0.0000
     57 H21         1.0975    2.8861   -0.2053 H         1 <0>         0.0000
     58 H22        -3.9264   -3.3239    1.5031 H         1 <0>         0.0000
     59 H23        -2.4381   -3.5216    0.5761 H         1 <0>         0.0000
     60 H24         2.6860    0.2029    3.1353 H         1 <0>         0.0000
     61 H25         1.4417   -0.3789    2.0117 H         1 <0>         0.0000
     62 H26        -5.9423    5.3122    5.2518 H         1 <0>         0.0000
     63 H27        -5.9345    4.1557    6.5993 H         1 <0>         0.0000
     64 H28         3.3217    2.4944    0.7235 H         1 <0>         0.0000
     65 H29         2.0785    2.1333    1.9360 H         1 <0>         0.0000
@<TRIPOS>BOND
     1    1    7 ar
     2    1   13 ar
     3    1   37 1
     4    2    8 ar
     5    2   13 ar
     6    2   38 1
     7    3    6 ar
     8    3   16 ar
     9    3   39 1
    10    4    9 ar
    11    4   15 ar
    12    4   40 1
    13    5   10 ar
    14    5   15 ar
    15    5   41 1
    16    6   17 ar
    17    6   42 1
    18    7   18 ar
    19    7   43 1
    20    8   18 ar
    21    8   44 1
    22    9   19 ar
    23    9   45 1
    24   10   19 ar
    25   10   46 1
    26   11   12 ar
    27   11   16 ar
    28   11   47 1
    29   12   14 1
    30   12   17 ar
    31   13   14 1
    32   14   20 2
    33   15   27 1
    34   16   26 1
    35   17   31 1
    36   18   34 1
    37   19   36 1
    38   20   21 1
    39   20   31 1
    40   21   32 1
    41   21   33 2
    42   22   23 1
    43   22   24 1
    44   22   48 1
    45   22   49 1
    46   23   24 1
    47   23   50 1
    48   23   51 1
    49   24   28 1
    50   24   52 1
    51   25   29 1
    52   25   53 1
    53   25   54 1
    54   25   55 1
    55   26   30 1
    56   26   56 1
    57   26   57 1
    58   27   31 1
    59   27   58 1
    60   27   59 1
    61   28   35 1
    62   28   60 1
    63   28   61 1
    64   29   34 1
    65   29   62 1
    66   29   63 1
    67   30   35 1
    68   30   64 1
    69   30   65 1
