@<TRIPOS>MOLECULE
*****
   65    69     0     0     0
SMALL
NO_CHARGES

@<TRIPOS>ATOM
      1 C1          1.7189    4.1327   -9.6189 C.ar      1 <0>         0.0000
      2 C2          0.1595    2.3578  -10.1914 C.ar      1 <0>         0.0000
      3 C3          1.2592    4.8789  -10.7059 C.ar      1 <0>         0.0000
      4 C4         -0.2863    3.1078  -11.2728 C.ar      1 <0>         0.0000
      5 C5          1.5611    0.9641  -13.6248 C.ar      1 <0>         0.0000
      6 C6          1.1959    2.1902  -14.1616 C.ar      1 <0>         0.0000
      7 C7          2.9701    3.2486  -12.8747 C.ar      1 <0>         0.0000
      8 C8          3.3432    2.0261  -12.3220 C.ar      1 <0>         0.0000
      9 C9          1.1855    2.8600   -9.3804 C.ar      1 <0>         0.0000
     10 C10         0.2792    4.3580  -11.5601 C.ar      1 <0>         0.0000
     11 C11         2.5841    0.8781  -12.6532 C.ar      1 <0>         0.0000
     12 C12         1.8939    3.3415  -13.7623 C.ar      1 <0>         0.0000
     13 C13         3.0272    1.9838   -7.8930 C.2       1 <0>         0.0000
     14 C14         3.7843   -1.7544  -10.2940 C.2       1 <0>         0.0000
     15 C15         4.5089    1.9314  -11.3630 C.3       1 <0>         0.0000
     16 C16         4.8144    0.4746  -11.0032 C.3       1 <0>         0.0000
     17 C17         2.1226   -0.5029   -0.9645 C.3       1 <0>         0.0000
     18 C18         2.7841    0.8275   -0.4905 C.3       1 <0>         0.0000
     19 C19         2.3219   -0.5511   -2.4971 C.3       1 <0>         0.0000
     20 C20         3.3250    1.5014   -1.7714 C.3       1 <0>         0.0000
     21 C21         3.5207   -0.3097  -10.8165 C.3       1 <0>         0.0000
     22 C22         3.5441    0.3469   -2.7655 C.3       1 <0>         0.0000
     23 C23         3.7124    0.7980   -4.2177 C.3       1 <0>         0.0000
     24 C24         3.9690   -0.3499   -5.2007 C.3       1 <0>         0.0000
     25 C25         4.1888    0.1098   -6.6404 C.3       1 <0>         0.0000
     26 N1          1.0117    0.9277   -7.9278 N.2       1 <0>         0.0000
     27 N2          1.8003    0.2074   -7.2301 N.2       1 <0>         0.0000
     28 N3          1.7115    2.0320   -8.3594 N.am      1 <0>         0.0000
     29 N4          3.0146    0.8055   -7.1749 N.am      1 <0>         0.0000
     30 N5         -0.0466    5.0386  -12.7723 N.pl3     1 <0>         0.0000
     31 O1          3.5939   -2.7098  -11.0702 O.co2     1 <0>         0.0000
     32 O2          3.9463    2.7818   -8.0627 O.2       1 <0>         0.0000
     33 O3          4.2035   -1.7342   -9.0950 O.co2     1 <0>         0.0000
     34 O4          0.3927    4.9809  -15.2683 O.2       1 <0>         0.0000
     35 O5          2.1745    5.9649  -13.7175 O.2       1 <0>         0.0000
     36 O6          2.7771   -0.3199  -12.0781 O.3       1 <0>         0.0000
     37 S1          1.1779    4.9372  -14.0264 S.o2      1 <0>         0.0000
     38 H1          2.5160    4.5090   -8.9894 H         1 <0>         0.0000
     39 H2         -0.2345    1.3659  -10.0050 H         1 <0>         0.0000
     40 H3          1.6959    5.8462  -10.9336 H         1 <0>         0.0000
     41 H4         -1.0273    2.6828  -11.9452 H         1 <0>         0.0000
     42 H5          1.0366    0.0519  -13.8939 H         1 <0>         0.0000
     43 H6          0.3703    2.2686  -14.8634 H         1 <0>         0.0000
     44 H7          3.5032    4.1508  -12.5906 H         1 <0>         0.0000
     45 H8          5.3852    2.4141  -11.8134 H         1 <0>         0.0000
     46 H9          4.2787    2.4972  -10.4538 H         1 <0>         0.0000
     47 H10         5.3908   -0.0136  -11.7979 H         1 <0>         0.0000
     48 H11         5.3922    0.4103  -10.0797 H         1 <0>         0.0000
     49 H12         2.6130   -1.3600   -0.4905 H         1 <0>         0.0000
     50 H13         1.0638   -0.5581   -0.6925 H         1 <0>         0.0000
     51 H14         2.0798    1.4736    0.0432 H         1 <0>         0.0000
     52 H15         3.6051    0.6167    0.2035 H         1 <0>         0.0000
     53 H16         2.4465   -1.5709   -2.8724 H         1 <0>         0.0000
     54 H17         1.4511   -0.1239   -3.0114 H         1 <0>         0.0000
     55 H18         2.5742    2.1867   -2.1864 H         1 <0>         0.0000
     56 H19         4.2334    2.0874   -1.5945 H         1 <0>         0.0000
     57 H20         2.8741    0.1997  -10.0918 H         1 <0>         0.0000
     58 H21         4.4482   -0.2027   -2.4600 H         1 <0>         0.0000
     59 H22         2.8102    1.3442   -4.5237 H         1 <0>         0.0000
     60 H23         4.5410    1.5169   -4.2804 H         1 <0>         0.0000
     61 H24         4.8646   -0.9075   -4.8991 H         1 <0>         0.0000
     62 H25         3.1383   -1.0619   -5.1822 H         1 <0>         0.0000
     63 H26         4.3951   -0.7192   -7.3281 H         1 <0>         0.0000
     64 H27         5.0005    0.8394   -6.7071 H         1 <0>         0.0000
     65 H28        -0.8946    4.6653  -13.1975 H         1 <0>         0.0000
@<TRIPOS>BOND
     1    1    3 ar
     2    1    9 ar
     3    1   38 1
     4    2    4 ar
     5    2    9 ar
     6    2   39 1
     7    3   10 ar
     8    3   40 1
     9    4   10 ar
    10    4   41 1
    11    5    6 ar
    12    5   11 ar
    13    5   42 1
    14    6   12 ar
    15    6   43 1
    16    7    8 ar
    17    7   12 ar
    18    7   44 1
    19    8   11 ar
    20    8   15 1
    21    9   28 1
    22   10   30 1
    23   11   36 1
    24   12   37 1
    25   13   28 am
    26   13   29 am
    27   13   32 2
    28   14   21 1
    29   14   31 1
    30   14   33 2
    31   15   16 1
    32   15   45 1
    33   15   46 1
    34   16   21 1
    35   16   47 1
    36   16   48 1
    37   17   18 1
    38   17   19 1
    39   17   49 1
    40   17   50 1
    41   18   20 1
    42   18   51 1
    43   18   52 1
    44   19   22 1
    45   19   53 1
    46   19   54 1
    47   20   22 1
    48   20   55 1
    49   20   56 1
    50   21   36 1
    51   21   57 1
    52   22   23 1
    53   22   58 1
    54   23   24 1
    55   23   59 1
    56   23   60 1
    57   24   25 1
    58   24   61 1
    59   24   62 1
    60   25   29 1
    61   25   63 1
    62   25   64 1
    63   26   27 2
    64   26   28 1
    65   27   29 1
    66   30   37 1
    67   30   65 1
    68   34   37 2
    69   35   37 2
