@<TRIPOS>MOLECULE
*****
   54    58     0     0     0
SMALL
NO_CHARGES

@<TRIPOS>ATOM
      1 C1         -5.5930   -3.2426    3.5512 C.ar      1 <0>         0.0000
      2 C2         -7.4409   -2.1435    2.4802 C.ar      1 <0>         0.0000
      3 C3         -5.5946   -4.2366    2.5649 C.ar      1 <0>         0.0000
      4 C4         -7.4626   -3.1227    1.4934 C.ar      1 <0>         0.0000
      5 C5         -6.5080   -2.1869    3.5287 C.ar      1 <0>         0.0000
      6 C6         -6.5342   -4.1756    1.5276 C.ar      1 <0>         0.0000
      7 C7         -2.3799   -1.4556    3.9276 C.2       1 <0>         0.0000
      8 C8         -3.8328   -0.6685    2.3985 C.2       1 <0>         0.0000
      9 C9         -1.1839   -0.5637    0.8047 C.2       1 <0>         0.0000
     10 C10        -1.1703   -2.1716    4.4381 C.3       1 <0>         0.0000
     11 C11        -0.0893   -2.2477    3.3461 C.3       1 <0>         0.0000
     12 C12        -0.6923   -2.7449    2.0238 C.3       1 <0>         0.0000
     13 C13        -7.6141   -0.7072    5.3741 C.3       1 <0>         0.0000
     14 C14        -6.4245   -1.4028    6.0054 C.3       1 <0>         0.0000
     15 C15        -2.6306   -0.8449   -1.3225 C.3       1 <0>         0.0000
     16 C16        -1.2452    0.8221   -1.2808 C.3       1 <0>         0.0000
     17 C17        -1.7896   -1.8076    1.4817 C.3       1 <0>         0.0000
     18 C18        -2.4592    0.4433   -2.1567 C.3       1 <0>         0.0000
     19 C19        -6.4134   -1.0745    4.5309 C.3       1 <0>         0.0000
     20 C20        -5.7102   -6.1743    0.5038 C.3       1 <0>         0.0000
     21 C21        -5.5243    0.0821    4.0776 C.3       1 <0>         0.0000
     22 N1         -3.3154   -0.8797    4.6306 N.2       1 <0>         0.0000
     23 N2         -2.6448   -1.3787    2.5764 N.am      1 <0>         0.0000
     24 N3         -4.2032   -0.3685    3.6875 N.am      1 <0>         0.0000
     25 N4         -1.4556   -0.4212   -0.5155 N.am      1 <0>         0.0000
     26 O1         -4.3769   -0.3804    1.3290 O.2       1 <0>         0.0000
     27 O2         -0.4650    0.2226    1.4245 O.2       1 <0>         0.0000
     28 O3         -6.6297   -5.0895    0.5093 O.3       1 <0>         0.0000
     29 F1         -2.1321    0.2064   -3.4913 F         1 <0>         0.0000
     30 H1         -4.8588   -3.2870    4.3517 H         1 <0>         0.0000
     31 H2         -8.1557   -1.3251    2.4356 H         1 <0>         0.0000
     32 H3         -4.8702   -5.0419    2.6208 H         1 <0>         0.0000
     33 H4         -8.1835   -3.0916    0.6815 H         1 <0>         0.0000
     34 H5         -0.8069   -1.6656    5.3359 H         1 <0>         0.0000
     35 H6         -1.4644   -3.1860    4.7385 H         1 <0>         0.0000
     36 H7          0.3567   -1.2626    3.1919 H         1 <0>         0.0000
     37 H8          0.7035   -2.9311    3.6661 H         1 <0>         0.0000
     38 H9          0.0838   -2.8490    1.2601 H         1 <0>         0.0000
     39 H10        -1.1348   -3.7377    2.1731 H         1 <0>         0.0000
     40 H11        -8.5228   -1.2843    5.2327 H         1 <0>         0.0000
     41 H12        -7.7770    0.3429    5.6045 H         1 <0>         0.0000
     42 H13        -5.7732   -0.8280    6.6568 H         1 <0>         0.0000
     43 H14        -6.5442   -2.4442    6.2875 H         1 <0>         0.0000
     44 H15        -3.5525   -0.9059   -0.7405 H         1 <0>         0.0000
     45 H16        -2.4562   -1.7565   -1.9021 H         1 <0>         0.0000
     46 H17        -0.2979    0.8481   -1.8269 H         1 <0>         0.0000
     47 H18        -1.3495    1.7211   -0.6673 H         1 <0>         0.0000
     48 H19        -2.4143   -2.3498    0.7679 H         1 <0>         0.0000
     49 H20        -3.3021    1.1355   -2.1388 H         1 <0>         0.0000
     50 H21        -5.9553   -6.7710   -0.3760 H         1 <0>         0.0000
     51 H22        -5.8147   -6.7943    1.4032 H         1 <0>         0.0000
     52 H23        -4.6736   -5.8216    0.4246 H         1 <0>         0.0000
     53 H24        -5.4203    0.8264    4.8728 H         1 <0>         0.0000
     54 H25        -5.9484    0.5682    3.1950 H         1 <0>         0.0000
@<TRIPOS>BOND
     1    1    3 ar
     2    1    5 ar
     3    1   30 1
     4    2    4 ar
     5    2    5 ar
     6    2   31 1
     7    3    6 ar
     8    3   32 1
     9    4    6 ar
    10    4   33 1
    11    5   19 1
    12    6   28 1
    13    7   10 1
    14    7   22 2
    15    7   23 1
    16    8   23 am
    17    8   24 am
    18    8   26 2
    19    9   17 1
    20    9   25 am
    21    9   27 2
    22   10   11 1
    23   10   34 1
    24   10   35 1
    25   11   12 1
    26   11   36 1
    27   11   37 1
    28   12   17 1
    29   12   38 1
    30   12   39 1
    31   13   14 1
    32   13   19 1
    33   13   40 1
    34   13   41 1
    35   14   19 1
    36   14   42 1
    37   14   43 1
    38   15   18 1
    39   15   25 1
    40   15   44 1
    41   15   45 1
    42   16   18 1
    43   16   25 1
    44   16   46 1
    45   16   47 1
    46   17   23 1
    47   17   48 1
    48   18   29 1
    49   18   49 1
    50   19   21 1
    51   20   28 1
    52   20   50 1
    53   20   51 1
    54   20   52 1
    55   21   24 1
    56   21   53 1
    57   21   54 1
    58   22   24 1
