@<TRIPOS>MOLECULE
*****
   61    63     0     0     0
SMALL
NO_CHARGES

@<TRIPOS>ATOM
      1 C1          6.5822   -2.5385   -5.0861 C.ar      1 <0>         0.0000
      2 C2          8.9919   -2.3106   -4.9462 C.ar      1 <0>         0.0000
      3 C3          6.6780   -2.6011   -6.4818 C.ar      1 <0>         0.0000
      4 C4          9.0862   -2.3726   -6.3331 C.ar      1 <0>         0.0000
      5 C5          7.7414   -2.3928   -4.3109 C.ar      1 <0>         0.0000
      6 C6          7.9236   -2.5182   -7.0976 C.ar      1 <0>         0.0000
      7 C7         -1.3739   -2.2286    0.4582 C.3       1 <0>         0.0000
      8 C8         -1.9230   -0.9235   -0.1304 C.3       1 <0>         0.0000
      9 C9          0.0388   -2.0293    1.0093 C.3       1 <0>         0.0000
     10 C10         0.4352   -0.1858   -0.4927 C.3       1 <0>         0.0000
     11 C11         3.2452   -2.9903   -1.3925 C.3       1 <0>         0.0000
     12 C12         3.2660   -1.5786   -0.8052 C.3       1 <0>         0.0000
     13 C13        -0.9560   -0.2810   -1.1484 C.3       1 <0>         0.0000
     14 C14         5.4115   -2.3586    0.0113 C.3       1 <0>         0.0000
     15 C15        -0.8715   -1.1174   -2.4377 C.3       1 <0>         0.0000
     16 C16        -1.4399    1.1355   -1.4936 C.3       1 <0>         0.0000
     17 C17         5.5584   -2.2690    1.5338 C.3       1 <0>         0.0000
     18 C18         7.4877   -0.9619   -0.4546 C.3       1 <0>         0.0000
     19 C19         7.6980   -3.4692   -0.3181 C.3       1 <0>         0.0000
     20 C20         2.3215   -1.4305    0.3976 C.3       1 <0>         0.0000
     21 C21         6.5100   -2.4010   -2.2540 C.3       1 <0>         0.0000
     22 C22         6.7840   -2.3058   -0.7422 C.3       1 <0>         0.0000
     23 N1          0.9244   -1.4860   -0.0252 N.3       1 <0>         0.0000
     24 O1          4.6208   -1.2632   -0.4659 O.3       1 <0>         0.0000
     25 O2          7.7605   -2.3219   -2.9492 O.3       1 <0>         0.0000
     26 S1          4.4326   -3.9266   -0.3724 S.3       1 <0>         0.0000
     27 Cl1         8.0407   -2.5973   -8.8520 Cl        1 <0>         0.0000
     28 H1          5.6042   -2.6062   -4.6247 H         1 <0>         0.0000
     29 H2          9.8817   -2.1981   -4.3340 H         1 <0>         0.0000
     30 H3          5.7809   -2.7148   -7.0823 H         1 <0>         0.0000
     31 H4         10.0541   -2.3089   -6.8205 H         1 <0>         0.0000
     32 H5         -2.0295   -2.5850    1.2610 H         1 <0>         0.0000
     33 H6         -1.3495   -3.0117   -0.3072 H         1 <0>         0.0000
     34 H7         -2.8993   -1.0946   -0.6000 H         1 <0>         0.0000
     35 H8         -2.0896   -0.2100    0.6885 H         1 <0>         0.0000
     36 H9         -0.0004   -1.3598    1.8923 H         1 <0>         0.0000
     37 H10         0.4483   -2.9870    1.3468 H         1 <0>         0.0000
     38 H11         1.1464    0.2231   -1.2183 H         1 <0>         0.0000
     39 H12         0.3894    0.5346    0.3487 H         1 <0>         0.0000
     40 H13         2.2505   -3.4304   -1.3025 H         1 <0>         0.0000
     41 H14         3.5486   -2.9939   -2.4428 H         1 <0>         0.0000
     42 H15         2.9886   -0.8526   -1.5753 H         1 <0>         0.0000
     43 H16        -0.2296   -0.6223   -3.1760 H         1 <0>         0.0000
     44 H17        -1.8633   -1.2398   -2.8877 H         1 <0>         0.0000
     45 H18        -0.4528   -2.1083   -2.2480 H         1 <0>         0.0000
     46 H19        -0.7621    1.6251   -2.2029 H         1 <0>         0.0000
     47 H20        -1.5035    1.7652   -0.5988 H         1 <0>         0.0000
     48 H21        -2.4348    1.1048   -1.9522 H         1 <0>         0.0000
     49 H22         4.5717   -2.2410    1.9970 H         1 <0>         0.0000
     50 H23         6.0945   -1.3594    1.8147 H         1 <0>         0.0000
     51 H24         6.0942   -3.1324    1.9351 H         1 <0>         0.0000
     52 H25         8.3657   -0.8652   -1.0974 H         1 <0>         0.0000
     53 H26         6.8206   -0.1184   -0.6503 H         1 <0>         0.0000
     54 H27         7.8286   -0.9020    0.5823 H         1 <0>         0.0000
     55 H28         8.6149   -3.4500   -0.9117 H         1 <0>         0.0000
     56 H29         7.2142   -4.4382   -0.4762 H         1 <0>         0.0000
     57 H30         7.9818   -3.3913    0.7348 H         1 <0>         0.0000
     58 H31         2.5703   -0.4962    0.9289 H         1 <0>         0.0000
     59 H32         2.5088   -2.2570    1.0882 H         1 <0>         0.0000
     60 H33         5.8638   -1.5754   -2.5696 H         1 <0>         0.0000
     61 H34         6.0252   -3.3542   -2.4902 H         1 <0>         0.0000
@<TRIPOS>BOND
     1    1    3 ar
     2    1    5 ar
     3    1   28 1
     4    2    4 ar
     5    2    5 ar
     6    2   29 1
     7    3    6 ar
     8    3   30 1
     9    4    6 ar
    10    4   31 1
    11    5   25 1
    12    6   27 1
    13    7    8 1
    14    7    9 1
    15    7   32 1
    16    7   33 1
    17    8   13 1
    18    8   34 1
    19    8   35 1
    20    9   23 1
    21    9   36 1
    22    9   37 1
    23   10   13 1
    24   10   23 1
    25   10   38 1
    26   10   39 1
    27   11   12 1
    28   11   26 1
    29   11   40 1
    30   11   41 1
    31   12   20 1
    32   12   24 1
    33   12   42 1
    34   13   15 1
    35   13   16 1
    36   14   17 1
    37   14   22 1
    38   14   24 1
    39   14   26 1
    40   15   43 1
    41   15   44 1
    42   15   45 1
    43   16   46 1
    44   16   47 1
    45   16   48 1
    46   17   49 1
    47   17   50 1
    48   17   51 1
    49   18   22 1
    50   18   52 1
    51   18   53 1
    52   18   54 1
    53   19   22 1
    54   19   55 1
    55   19   56 1
    56   19   57 1
    57   20   23 1
    58   20   58 1
    59   20   59 1
    60   21   22 1
    61   21   25 1
    62   21   60 1
    63   21   61 1
