@<TRIPOS>MOLECULE
*****
   57    61     0     0     0
SMALL
NO_CHARGES

@<TRIPOS>ATOM
      1 C1         -0.6629    1.1895    1.2976 C.ar      1 <0>         0.0000
      2 C2         -0.7253    0.0188    0.5029 C.ar      1 <0>         0.0000
      3 C3         -7.6906   -2.3140   -0.2787 C.ar      1 <0>         0.0000
      4 C4         -1.5977    1.4199    2.2981 C.ar      1 <0>         0.0000
      5 C5         -4.0118    1.1070    5.8251 C.ar      1 <0>         0.0000
      6 C6         -4.2726    2.7471    4.0792 C.ar      1 <0>         0.0000
      7 C7         -6.6596   -2.7365    0.5734 C.ar      1 <0>         0.0000
      8 C8         -1.7109   -0.9428    0.6976 C.ar      1 <0>         0.0000
      9 C9         -7.4641   -1.3335   -1.2385 C.ar      1 <0>         0.0000
     10 C10        -4.2621    2.0816    6.7833 C.ar      1 <0>         0.0000
     11 C11        -4.5221    3.7391    5.0323 C.ar      1 <0>         0.0000
     12 C12        -5.1508   -1.1822   -0.5184 C.ar      1 <0>         0.0000
     13 C13        -2.6178    0.4698    2.5032 C.ar      1 <0>         0.0000
     14 C14        -4.0208    1.4170    4.4491 C.ar      1 <0>         0.0000
     15 C15        -3.7208    0.4004    3.4195 C.2       1 <0>         0.0000
     16 C16        -5.3892   -2.1744    0.4487 C.ar      1 <0>         0.0000
     17 C17        -2.6539   -0.7142    1.7149 C.ar      1 <0>         0.0000
     18 C18        -4.5180    3.4085    6.3962 C.ar      1 <0>         0.0000
     19 C19        -6.1866   -0.7588   -1.3560 C.ar      1 <0>         0.0000
     20 C20        -4.3797   -0.7994    3.1614 C.2       1 <0>         0.0000
     21 C21        -5.5808   -1.3714    3.8140 C.2       1 <0>         0.0000
     22 C22        -4.9486    7.9000    8.3740 C.3       1 <0>         0.0000
     23 C23        -4.0711    6.9259    9.1303 C.3       1 <0>         0.0000
     24 C24        -5.2591    6.4178    8.3468 C.3       1 <0>         0.0000
     25 C25        -4.7791    0.8336   -2.4521 C.3       1 <0>         0.0000
     26 C26        -4.2623   -2.6101    1.3670 C.3       1 <0>         0.0000
     27 C27        -5.0344    5.6558    7.0722 C.3       1 <0>         0.0000
     28 N1         -3.7134   -1.4899    2.1432 N.pl3     1 <0>         0.0000
     29 O1         -5.8885   -2.5483    3.7602 O.2       1 <0>         0.0000
     30 O2         -6.3688   -0.5057    4.5008 O.3       1 <0>         0.0000
     31 O3         -6.0511    0.2072   -2.3187 O.3       1 <0>         0.0000
     32 O4         -4.7436    4.2910    7.4102 O.3       1 <0>         0.0000
     33 H1          0.1300    1.9107    1.1191 H         1 <0>         0.0000
     34 H2          0.0189   -0.1363   -0.2738 H         1 <0>         0.0000
     35 H3         -8.6826   -2.7475   -0.1817 H         1 <0>         0.0000
     36 H4         -1.5501    2.3138    2.9140 H         1 <0>         0.0000
     37 H5         -3.8038    0.0881    6.1399 H         1 <0>         0.0000
     38 H6         -4.2877    3.0087    3.0245 H         1 <0>         0.0000
     39 H7         -6.8510   -3.4747    1.3460 H         1 <0>         0.0000
     40 H8         -1.7359   -1.8371    0.0825 H         1 <0>         0.0000
     41 H9         -8.2544   -0.9909   -1.9001 H         1 <0>         0.0000
     42 H10        -4.2572    1.8411    7.8422 H         1 <0>         0.0000
     43 H11        -4.7203    4.7515    4.7001 H         1 <0>         0.0000
     44 H12        -4.1631   -0.7430   -0.5938 H         1 <0>         0.0000
     45 H13        -5.6119    8.5463    8.9405 H         1 <0>         0.0000
     46 H14        -4.5452    8.3538    7.4725 H         1 <0>         0.0000
     47 H15        -3.0820    6.7164    8.7328 H         1 <0>         0.0000
     48 H16        -4.1328    6.9113   10.2140 H         1 <0>         0.0000
     49 H17        -6.1197    6.0876    8.9228 H         1 <0>         0.0000
     50 H18        -4.8910    1.5710   -3.2483 H         1 <0>         0.0000
     51 H19        -4.0036    0.1103   -2.7337 H         1 <0>         0.0000
     52 H20        -4.4816    1.3394   -1.5252 H         1 <0>         0.0000
     53 H21        -4.6095   -3.3738    2.0583 H         1 <0>         0.0000
     54 H22        -3.4329   -3.0276    0.7917 H         1 <0>         0.0000
     55 H23        -4.1921    6.0852    6.5127 H         1 <0>         0.0000
     56 H24        -5.9271    5.6908    6.4333 H         1 <0>         0.0000
     57 H25        -5.9953    0.3961    4.4757 H         1 <0>         0.0000
@<TRIPOS>BOND
     1    1    2 ar
     2    1    4 ar
     3    1   33 1
     4    2    8 ar
     5    2   34 1
     6    3    7 ar
     7    3    9 ar
     8    3   35 1
     9    4   13 ar
    10    4   36 1
    11    5   10 ar
    12    5   14 ar
    13    5   37 1
    14    6   11 ar
    15    6   14 ar
    16    6   38 1
    17    7   16 ar
    18    7   39 1
    19    8   17 ar
    20    8   40 1
    21    9   19 ar
    22    9   41 1
    23   10   18 ar
    24   10   42 1
    25   11   18 ar
    26   11   43 1
    27   12   16 ar
    28   12   19 ar
    29   12   44 1
    30   13   15 1
    31   13   17 ar
    32   14   15 1
    33   15   20 2
    34   16   26 1
    35   17   28 1
    36   18   32 1
    37   19   31 1
    38   20   21 1
    39   20   28 1
    40   21   29 2
    41   21   30 1
    42   22   23 1
    43   22   24 1
    44   22   45 1
    45   22   46 1
    46   23   24 1
    47   23   47 1
    48   23   48 1
    49   24   27 1
    50   24   49 1
    51   25   31 1
    52   25   50 1
    53   25   51 1
    54   25   52 1
    55   26   28 1
    56   26   53 1
    57   26   54 1
    58   27   32 1
    59   27   55 1
    60   27   56 1
    61   30   57 1
