@<TRIPOS>MOLECULE
*****
   63    67     0     0     0
SMALL
NO_CHARGES

@<TRIPOS>ATOM
      1 C1          2.3134    3.1229   -1.7054 C.ar      1 <0>         0.0000
      2 C2          4.3199    2.9278   -0.3808 C.ar      1 <0>         0.0000
      3 C3          2.8212    2.1969   -2.6187 C.ar      1 <0>         0.0000
      4 C4          4.8367    2.0080   -1.2913 C.ar      1 <0>         0.0000
      5 C5          4.5625    5.0833    3.5626 C.ar      1 <0>         0.0000
      6 C6          2.5456    3.3476    2.6817 C.ar      1 <0>         0.0000
      7 C7          3.0831    3.1929    3.9915 C.ar      1 <0>         0.0000
      8 C8          3.0481    3.4890   -0.5713 C.ar      1 <0>         0.0000
      9 C9          4.0826    1.6348   -2.4100 C.ar      1 <0>         0.0000
     10 C10         4.0735    5.2132    2.2658 C.ar      1 <0>         0.0000
     11 C11         3.0307    4.3542    1.8275 C.ar      1 <0>         0.0000
     12 C12         4.0765    4.0994    4.4217 C.ar      1 <0>         0.0000
     13 C13         1.5461    1.4185    1.3814 C.2       1 <0>         0.0000
     14 C14         1.4466    2.4501    2.2339 C.2       1 <0>         0.0000
     15 C15         2.7543    2.0482    4.8768 C.2       1 <0>         0.0000
     16 C16         0.2350    0.6871    1.2196 C.3       1 <0>         0.0000
     17 C17         0.0216    2.5966    2.7568 C.3       1 <0>         0.0000
     18 C18         3.5889    1.9618    6.1477 C.3       1 <0>         0.0000
     19 C19        -0.7950    1.6821    1.8106 C.3       1 <0>         0.0000
     20 C20         3.6929    4.6686    8.3933 C.3       1 <0>         0.0000
     21 C21         4.6617    3.5126    8.0115 C.3       1 <0>         0.0000
     22 C22         2.7477    4.2168    7.2438 C.3       1 <0>         0.0000
     23 C23         3.9054    3.3428    6.6762 C.3       1 <0>         0.0000
     24 C24         6.1124    6.6544    1.6619 C.3       1 <0>         0.0000
     25 C25         3.7662    7.5806    1.4740 C.3       1 <0>         0.0000
     26 C26         2.4727    4.5129    0.4088 C.3       1 <0>         0.0000
     27 C27         4.6419    6.3140    1.3728 C.3       1 <0>         0.0000
     28 C28         4.6594    0.6346   -3.3727 C.3       1 <0>         0.0000
     29 O1          1.9147    1.1886    4.6301 O.2       1 <0>         0.0000
     30 O2          4.6408    4.0682    5.6634 O.3       1 <0>         0.0000
     31 O3          1.0488    4.5745    0.3473 O.3       1 <0>         0.0000
     32 F1          3.7948    0.3031   -4.3608 F         1 <0>         0.0000
     33 F2          5.7879    1.1017   -3.9740 F         1 <0>         0.0000
     34 F3          5.0139   -0.5219   -2.7494 F         1 <0>         0.0000
     35 H1          1.3316    3.5579   -1.8611 H         1 <0>         0.0000
     36 H2          4.9002    3.1869    0.4991 H         1 <0>         0.0000
     37 H3          2.2367    1.9109   -3.4872 H         1 <0>         0.0000
     38 H4          5.8173    1.5707   -1.1254 H         1 <0>         0.0000
     39 H5          5.3367    5.7391    3.9437 H         1 <0>         0.0000
     40 H6          2.4703    1.0867    0.9186 H         1 <0>         0.0000
     41 H7          0.0198    0.4171    0.1794 H         1 <0>         0.0000
     42 H8          0.2651   -0.2496    1.7933 H         1 <0>         0.0000
     43 H9         -0.0194    2.2457    3.7921 H         1 <0>         0.0000
     44 H10        -0.3197    3.6376    2.7458 H         1 <0>         0.0000
     45 H11         3.0437    1.3628    6.8800 H         1 <0>         0.0000
     46 H12         4.5257    1.4389    5.9111 H         1 <0>         0.0000
     47 H13        -1.2304    2.2795    1.0006 H         1 <0>         0.0000
     48 H14        -1.6219    1.1823    2.3219 H         1 <0>         0.0000
     49 H15         4.1298    5.6526    8.2091 H         1 <0>         0.0000
     50 H16         3.2787    4.6488    9.4040 H         1 <0>         0.0000
     51 H17         5.7235    3.7495    7.9110 H         1 <0>         0.0000
     52 H18         4.5464    2.6330    8.6513 H         1 <0>         0.0000
     53 H19         1.9161    3.6002    7.5976 H         1 <0>         0.0000
     54 H20         2.3588    4.9852    6.5714 H         1 <0>         0.0000
     55 H21         6.2391    7.1619    2.6233 H         1 <0>         0.0000
     56 H22         6.4897    7.3313    0.8887 H         1 <0>         0.0000
     57 H23         6.7409    5.7582    1.6642 H         1 <0>         0.0000
     58 H24         3.8011    7.9822    2.4925 H         1 <0>         0.0000
     59 H25         2.7186    7.3739    1.2366 H         1 <0>         0.0000
     60 H26         4.1282    8.3548    0.7888 H         1 <0>         0.0000
     61 H27         2.7666    5.4931    0.0365 H         1 <0>         0.0000
     62 H28         4.6155    5.9626    0.3370 H         1 <0>         0.0000
     63 H29         0.7233    3.6928    0.5988 H         1 <0>         0.0000
@<TRIPOS>BOND
     1    1    3 ar
     2    1    8 ar
     3    1   35 1
     4    2    4 ar
     5    2    8 ar
     6    2   36 1
     7    3    9 ar
     8    3   37 1
     9    4    9 ar
    10    4   38 1
    11    5   10 ar
    12    5   12 ar
    13    5   39 1
    14    6    7 ar
    15    6   11 ar
    16    6   14 1
    17    7   12 ar
    18    7   15 1
    19    8   26 1
    20    9   28 1
    21   10   11 ar
    22   10   27 1
    23   11   26 1
    24   12   30 1
    25   13   14 2
    26   13   16 1
    27   13   40 1
    28   14   17 1
    29   15   18 1
    30   15   29 2
    31   16   19 1
    32   16   41 1
    33   16   42 1
    34   17   19 1
    35   17   43 1
    36   17   44 1
    37   18   23 1
    38   18   45 1
    39   18   46 1
    40   19   47 1
    41   19   48 1
    42   20   22 1
    43   20   21 1
    44   20   49 1
    45   20   50 1
    46   21   23 1
    47   21   51 1
    48   21   52 1
    49   22   23 1
    50   22   53 1
    51   22   54 1
    52   23   30 1
    53   24   27 1
    54   24   55 1
    55   24   56 1
    56   24   57 1
    57   25   27 1
    58   25   58 1
    59   25   59 1
    60   25   60 1
    61   26   31 1
    62   26   61 1
    63   27   62 1
    64   28   32 1
    65   28   33 1
    66   28   34 1
    67   31   63 1
