@<TRIPOS>MOLECULE
*****
   54    58     0     0     0
SMALL
NO_CHARGES

@<TRIPOS>ATOM
      1 C1         -6.3787   -1.1624    6.6110 C.ar      1 <0>         0.0000
      2 C2         -5.2160   -2.6163    5.0941 C.ar      1 <0>         0.0000
      3 C3         -5.8403   -1.8476    7.6947 C.ar      1 <0>         0.0000
      4 C4         -4.6609   -3.3188    6.1705 C.ar      1 <0>         0.0000
      5 C5         -6.0781   -1.5349    5.2910 C.ar      1 <0>         0.0000
      6 C6         -4.9731   -2.9312    7.4800 C.ar      1 <0>         0.0000
      7 C7         -2.3304   -0.2826    4.2456 C.2       1 <0>         0.0000
      8 C8         -3.7903   -0.5327    2.5493 C.2       1 <0>         0.0000
      9 C9         -1.1040   -0.3158    1.0447 C.2       1 <0>         0.0000
     10 C10        -1.0452   -0.4429    4.9913 C.3       1 <0>         0.0000
     11 C11         0.1235   -0.6491    4.0123 C.3       1 <0>         0.0000
     12 C12        -0.2230   -1.7265    2.9733 C.3       1 <0>         0.0000
     13 C13        -7.2452   -1.4498    2.9712 C.3       1 <0>         0.0000
     14 C14        -8.0702   -0.5818    3.8992 C.3       1 <0>         0.0000
     15 C15        -2.1975   -1.6922   -0.8523 C.3       1 <0>         0.0000
     16 C16        -1.2600    0.1823   -1.4050 C.3       1 <0>         0.0000
     17 C17        -1.4549   -1.3601    2.1217 C.3       1 <0>         0.0000
     18 C18        -2.2409   -0.7854   -2.1018 C.3       1 <0>         0.0000
     19 C19        -6.5817   -0.7355    4.1265 C.3       1 <0>         0.0000
     20 C20        -3.6146   -4.6500    8.4402 C.3       1 <0>         0.0000
     21 C21        -5.7250    0.4837    3.7925 C.3       1 <0>         0.0000
     22 N1         -3.4242    0.2867    4.6647 N.2       1 <0>         0.0000
     23 N2         -2.4945   -0.8186    2.9827 N.am      1 <0>         0.0000
     24 N3         -4.3244    0.1458    3.6131 N.am      1 <0>         0.0000
     25 N4         -1.2504   -0.7231   -0.2404 N.am      1 <0>         0.0000
     26 O1         -4.2947   -0.8270    1.4581 O.2       1 <0>         0.0000
     27 O2         -0.6775    0.8012    1.3427 O.2       1 <0>         0.0000
     28 O3         -4.4919   -3.5432    8.6090 O.3       1 <0>         0.0000
     29 F1         -1.7151   -1.3849   -3.2454 F         1 <0>         0.0000
     30 H1         -7.0447   -0.3209    6.7891 H         1 <0>         0.0000
     31 H2         -4.9698   -2.9190    4.0790 H         1 <0>         0.0000
     32 H3         -6.0740   -1.5638    8.7168 H         1 <0>         0.0000
     33 H4         -4.0002   -4.1563    5.9748 H         1 <0>         0.0000
     34 H5         -0.8915    0.4292    5.6313 H         1 <0>         0.0000
     35 H6         -1.1357   -1.3148    5.6524 H         1 <0>         0.0000
     36 H7          0.3506    0.2882    3.4997 H         1 <0>         0.0000
     37 H8          1.0154   -0.9541    4.5687 H         1 <0>         0.0000
     38 H9          0.6226   -1.9021    2.3018 H         1 <0>         0.0000
     39 H10        -0.4328   -2.6746    3.4839 H         1 <0>         0.0000
     40 H11        -7.3682   -2.5254    3.0527 H         1 <0>         0.0000
     41 H12        -7.0312   -1.0913    1.9697 H         1 <0>         0.0000
     42 H13        -8.4355    0.3707    3.5227 H         1 <0>         0.0000
     43 H14        -8.7374   -1.0764    4.5985 H         1 <0>         0.0000
     44 H15        -3.1382   -1.7769   -0.3039 H         1 <0>         0.0000
     45 H16        -1.7541   -2.6730   -1.0496 H         1 <0>         0.0000
     46 H17        -0.2912    0.2661   -1.9056 H         1 <0>         0.0000
     47 H18        -1.6461    1.1770   -1.1662 H         1 <0>         0.0000
     48 H19        -1.8509   -2.2607    1.6462 H         1 <0>         0.0000
     49 H20        -3.2195   -0.3785   -2.3602 H         1 <0>         0.0000
     50 H21        -3.3553   -4.9833    9.4462 H         1 <0>         0.0000
     51 H22        -2.6996   -4.3595    7.9081 H         1 <0>         0.0000
     52 H23        -4.1032   -5.4713    7.9008 H         1 <0>         0.0000
     53 H24        -5.7581    1.2154    4.6030 H         1 <0>         0.0000
     54 H25        -6.0845    0.9596    2.8753 H         1 <0>         0.0000
@<TRIPOS>BOND
     1    1    3 ar
     2    1    5 ar
     3    1   30 1
     4    2    4 ar
     5    2    5 ar
     6    2   31 1
     7    3    6 ar
     8    3   32 1
     9    4    6 ar
    10    4   33 1
    11    5   19 1
    12    6   28 1
    13    7   10 1
    14    7   22 2
    15    7   23 1
    16    8   23 am
    17    8   24 am
    18    8   26 2
    19    9   17 1
    20    9   25 am
    21    9   27 2
    22   10   11 1
    23   10   34 1
    24   10   35 1
    25   11   12 1
    26   11   36 1
    27   11   37 1
    28   12   17 1
    29   12   38 1
    30   12   39 1
    31   13   14 1
    32   13   19 1
    33   13   40 1
    34   13   41 1
    35   14   19 1
    36   14   42 1
    37   14   43 1
    38   15   18 1
    39   15   25 1
    40   15   44 1
    41   15   45 1
    42   16   18 1
    43   16   25 1
    44   16   46 1
    45   16   47 1
    46   17   23 1
    47   17   48 1
    48   18   29 1
    49   18   49 1
    50   19   21 1
    51   20   28 1
    52   20   50 1
    53   20   51 1
    54   20   52 1
    55   21   24 1
    56   21   53 1
    57   21   54 1
    58   22   24 1
