@<TRIPOS>MOLECULE
*****
   65    69     0     0     0
SMALL
NO_CHARGES

@<TRIPOS>ATOM
      1 C1         -5.3878    2.6862    4.4749 C.ar      1 <0>         0.0000
      2 C2         -3.0610    2.7124    5.0830 C.ar      1 <0>         0.0000
      3 C3         -0.6545    0.2657    0.6233 C.ar      1 <0>         0.0000
      4 C4         -4.5988   -1.9081   -1.2387 C.ar      1 <0>         0.0000
      5 C5         -6.1695   -0.4858   -0.0764 C.ar      1 <0>         0.0000
      6 C6         -1.7714   -0.5583    0.7835 C.ar      1 <0>         0.0000
      7 C7         -5.6433    3.6997    5.4052 C.ar      1 <0>         0.0000
      8 C8         -3.3027    3.7270    6.0063 C.ar      1 <0>         0.0000
      9 C9         -5.1012   -1.4840   -2.4745 C.ar      1 <0>         0.0000
     10 C10        -6.6826   -0.0525   -1.3008 C.ar      1 <0>         0.0000
     11 C11        -1.4723    1.8095    2.3142 C.ar      1 <0>         0.0000
     12 C12        -2.6057    1.0005    2.5093 C.ar      1 <0>         0.0000
     13 C13        -4.0936    2.1695    4.2890 C.ar      1 <0>         0.0000
     14 C14        -3.8093    1.1116    3.3067 C.2       1 <0>         0.0000
     15 C15        -5.1204   -1.4212   -0.0353 C.ar      1 <0>         0.0000
     16 C16        -0.5086    1.4589    1.3618 C.ar      1 <0>         0.0000
     17 C17        -2.7399   -0.1773    1.7142 C.ar      1 <0>         0.0000
     18 C18        -4.5992    4.2305    6.1724 C.ar      1 <0>         0.0000
     19 C19        -6.1370   -0.5608   -2.4758 C.ar      1 <0>         0.0000
     20 C20        -4.6161    0.0283    2.9698 C.2       1 <0>         0.0000
     21 C21        -6.0190   -0.3993    3.4175 C.2       1 <0>         0.0000
     22 C22        -3.6569    1.8116   -2.5144 C.3       1 <0>         0.0000
     23 C23        -2.3683    1.0455   -2.7068 C.3       1 <0>         0.0000
     24 C24        -2.3274    2.5367   -2.4539 C.3       1 <0>         0.0000
     25 C25        -5.9606    6.7991    8.4260 C.3       1 <0>         0.0000
     26 C26         0.6000    2.4252    1.0096 C.3       1 <0>         0.0000
     27 C27        -4.5491   -1.8657    1.3002 C.3       1 <0>         0.0000
     28 C28        -1.8590    3.0558   -1.1228 C.3       1 <0>         0.0000
     29 C29        -6.0573    5.7386    7.3402 C.3       1 <0>         0.0000
     30 C30         0.1224    3.5876    0.1188 C.3       1 <0>         0.0000
     31 N1         -3.9497   -0.7618    2.0365 N.pl3     1 <0>         0.0000
     32 O1         -6.0785   -1.5111    3.9976 O.co2     1 <0>         0.0000
     33 O2         -6.9481    0.3881    3.0807 O.co2     1 <0>         0.0000
     34 O3         -4.7455    5.2349    7.1124 O.3       1 <0>         0.0000
     35 O4         -0.4270    3.1544   -1.1228 O.3       1 <0>         0.0000
     36 F1         -6.6258   -0.1218   -3.6761 F         1 <0>         0.0000
     37 H1         -6.2026    2.2693    3.8896 H         1 <0>         0.0000
     38 H2         -2.0564    2.3081    4.9990 H         1 <0>         0.0000
     39 H3          0.0937    0.0128   -0.1240 H         1 <0>         0.0000
     40 H4         -3.7783   -2.6225   -1.2189 H         1 <0>         0.0000
     41 H5         -6.5809   -0.0885    0.8508 H         1 <0>         0.0000
     42 H6         -1.8877   -1.4537    0.1794 H         1 <0>         0.0000
     43 H7         -6.6609    4.0600    5.5146 H         1 <0>         0.0000
     44 H8         -2.5009    4.1309    6.6195 H         1 <0>         0.0000
     45 H9         -4.6884   -1.8387   -3.4141 H         1 <0>         0.0000
     46 H10        -7.4890    0.6736   -1.3488 H         1 <0>         0.0000
     47 H11        -1.3691    2.7440    2.8611 H         1 <0>         0.0000
     48 H12        -4.2969    1.9743   -3.3768 H         1 <0>         0.0000
     49 H13        -4.1923    1.6535   -1.5830 H         1 <0>         0.0000
     50 H14        -2.0521    0.3963   -1.8974 H         1 <0>         0.0000
     51 H15        -2.1251    0.6910   -3.7052 H         1 <0>         0.0000
     52 H16        -2.0747    3.1666   -3.3047 H         1 <0>         0.0000
     53 H17        -5.5633    6.3683    9.3502 H         1 <0>         0.0000
     54 H18        -5.2978    7.6119    8.1127 H         1 <0>         0.0000
     55 H19        -6.9514    7.2180    8.6343 H         1 <0>         0.0000
     56 H20         1.0410    2.8653    1.9151 H         1 <0>         0.0000
     57 H21         1.4040    1.8984    0.4835 H         1 <0>         0.0000
     58 H22        -5.3211   -2.2925    1.9441 H         1 <0>         0.0000
     59 H23        -3.7851   -2.6346    1.1450 H         1 <0>         0.0000
     60 H24        -2.2020    2.3911   -0.3235 H         1 <0>         0.0000
     61 H25        -2.2866    4.0542   -0.9327 H         1 <0>         0.0000
     62 H26        -6.4635    6.1691    6.4137 H         1 <0>         0.0000
     63 H27        -6.7256    4.9236    7.6520 H         1 <0>         0.0000
     64 H28        -0.6090    4.1984    0.6672 H         1 <0>         0.0000
     65 H29         0.9778    4.2318   -0.1251 H         1 <0>         0.0000
@<TRIPOS>BOND
     1    1    7 ar
     2    1   13 ar
     3    1   37 1
     4    2    8 ar
     5    2   13 ar
     6    2   38 1
     7    3    6 ar
     8    3   16 ar
     9    3   39 1
    10    4    9 ar
    11    4   15 ar
    12    4   40 1
    13    5   10 ar
    14    5   15 ar
    15    5   41 1
    16    6   17 ar
    17    6   42 1
    18    7   18 ar
    19    7   43 1
    20    8   18 ar
    21    8   44 1
    22    9   19 ar
    23    9   45 1
    24   10   19 ar
    25   10   46 1
    26   11   12 ar
    27   11   16 ar
    28   11   47 1
    29   12   14 1
    30   12   17 ar
    31   13   14 1
    32   14   20 2
    33   15   27 1
    34   16   26 1
    35   17   31 1
    36   18   34 1
    37   19   36 1
    38   20   21 1
    39   20   31 1
    40   21   32 1
    41   21   33 2
    42   22   23 1
    43   22   24 1
    44   22   48 1
    45   22   49 1
    46   23   24 1
    47   23   50 1
    48   23   51 1
    49   24   28 1
    50   24   52 1
    51   25   29 1
    52   25   53 1
    53   25   54 1
    54   25   55 1
    55   26   30 1
    56   26   56 1
    57   26   57 1
    58   27   31 1
    59   27   58 1
    60   27   59 1
    61   28   35 1
    62   28   60 1
    63   28   61 1
    64   29   34 1
    65   29   62 1
    66   29   63 1
    67   30   35 1
    68   30   64 1
    69   30   65 1
