@<TRIPOS>MOLECULE
*****
   64    66     0     0     0
SMALL
NO_CHARGES

@<TRIPOS>ATOM
      1 C1          3.6283    1.5390    3.8495 C.ar      1 <0>         0.0000
      2 C2          5.7082    0.9401    2.7794 C.ar      1 <0>         0.0000
      3 C3          4.3133    2.3777    4.7330 C.ar      1 <0>         0.0000
      4 C4          6.4114    1.7701    3.6558 C.ar      1 <0>         0.0000
      5 C5          4.3128    0.8193    2.8595 C.ar      1 <0>         0.0000
      6 C6          3.5440   -0.0373    1.9055 C.ar      1 <0>         0.0000
      7 C7          3.3306    0.3904    0.5812 C.ar      1 <0>         0.0000
      8 C8          2.9739   -1.2446    2.3512 C.ar      1 <0>         0.0000
      9 C9          5.6945    2.4801    4.6148 C.ar      1 <0>         0.0000
     10 C10         2.5074   -0.4063   -0.2401 C.ar      1 <0>         0.0000
     11 C11         2.1682   -1.9673    1.4516 C.ar      1 <0>         0.0000
     12 C12         1.8234    5.8392    1.8972 C.3       1 <0>         0.0000
     13 C13         2.9381    4.9031    2.3851 C.3       1 <0>         0.0000
     14 C14         1.1707    5.3029    0.6145 C.3       1 <0>         0.0000
     15 C15         3.9823    4.6445    1.2881 C.3       1 <0>         0.0000
     16 C16         2.2193    5.0565   -0.4800 C.3       1 <0>         0.0000
     17 C17         3.3409    4.1126   -0.0148 C.3       1 <0>         0.0000
     18 C18         0.6271    0.2551   -1.7541 C.3       1 <0>         0.0000
     19 C19         2.5618   -1.1286   -2.6493 C.3       1 <0>         0.0000
     20 C20         1.8424   -4.4009    0.8953 C.3       1 <0>         0.0000
     21 C21        -0.0841   -3.0039    1.7877 C.3       1 <0>         0.0000
     22 C22         3.8828    1.7115    0.0940 C.3       1 <0>         0.0000
     23 C23         3.2023   -1.7248    3.7614 C.3       1 <0>         0.0000
     24 C24         2.1377   -0.0254   -1.6653 C.3       1 <0>         0.0000
     25 C25         1.4355   -3.2468    1.8263 C.3       1 <0>         0.0000
     26 N1          1.9577   -1.5451    0.1993 N.ar      1 <0>         0.0000
     27 N2          2.8257    2.7342    0.0925 N.3       1 <0>         0.0000
     28 O1          2.0496   -1.3739    4.5532 O.3       1 <0>         0.0000
     29 F1          6.3690    3.2977    5.4653 F         1 <0>         0.0000
     30 H1          2.5513    1.4322    3.9342 H         1 <0>         0.0000
     31 H2          6.2501    0.3793    2.0225 H         1 <0>         0.0000
     32 H3          3.7916    2.9473    5.4958 H         1 <0>         0.0000
     33 H4          7.4909    1.8729    3.6014 H         1 <0>         0.0000
     34 H5          2.2494    6.8321    1.6955 H         1 <0>         0.0000
     35 H6          1.0698    5.9743    2.6823 H         1 <0>         0.0000
     36 H7          3.4301    5.3167    3.2729 H         1 <0>         0.0000
     37 H8          2.4972    3.9506    2.7071 H         1 <0>         0.0000
     38 H9          0.6402    4.3664    0.8339 H         1 <0>         0.0000
     39 H10         0.4116    6.0056    0.2516 H         1 <0>         0.0000
     40 H11         4.5048    5.5842    1.0629 H         1 <0>         0.0000
     41 H12         4.7434    3.9455    1.6530 H         1 <0>         0.0000
     42 H13         1.7510    4.6337   -1.3747 H         1 <0>         0.0000
     43 H14         2.6673    6.0182   -0.7653 H         1 <0>         0.0000
     44 H15         4.1090    4.0867   -0.7977 H         1 <0>         0.0000
     45 H16         0.0550   -0.6339   -1.4725 H         1 <0>         0.0000
     46 H17         0.3522    0.5377   -2.7765 H         1 <0>         0.0000
     47 H18         0.3496    1.0771   -1.0871 H         1 <0>         0.0000
     48 H19         2.0585   -2.0692   -2.4089 H         1 <0>         0.0000
     49 H20         3.6431   -1.3032   -2.6096 H         1 <0>         0.0000
     50 H21         2.3008   -0.8461   -3.6753 H         1 <0>         0.0000
     51 H22         1.5957   -4.1574   -0.1418 H         1 <0>         0.0000
     52 H23         1.3153   -5.3206    1.1724 H         1 <0>         0.0000
     53 H24         2.9194   -4.5959    0.9501 H         1 <0>         0.0000
     54 H25        -0.3968   -2.7106    0.7813 H         1 <0>         0.0000
     55 H26        -0.3673   -2.2090    2.4848 H         1 <0>         0.0000
     56 H27        -0.6233   -3.9157    2.0683 H         1 <0>         0.0000
     57 H28         4.7403    1.9992    0.7127 H         1 <0>         0.0000
     58 H29         4.2637    1.6122   -0.9286 H         1 <0>         0.0000
     59 H30         3.3558   -2.8111    3.7758 H         1 <0>         0.0000
     60 H31         4.1018   -1.2569    4.1750 H         1 <0>         0.0000
     61 H32         2.6523    0.8993   -1.9304 H         1 <0>         0.0000
     62 H33         1.6934   -3.5201    2.8515 H         1 <0>         0.0000
     63 H34         2.2855    2.6346    0.9494 H         1 <0>         0.0000
     64 H35         2.2123   -1.6724    5.4626 H         1 <0>         0.0000
@<TRIPOS>BOND
     1    1    3 ar
     2    1    5 ar
     3    1   30 1
     4    2    4 ar
     5    2    5 ar
     6    2   31 1
     7    3    9 ar
     8    3   32 1
     9    4    9 ar
    10    4   33 1
    11    5    6 1
    12    6    7 ar
    13    6    8 ar
    14    7   10 ar
    15    7   22 1
    16    8   11 ar
    17    8   23 1
    18    9   29 1
    19   10   24 1
    20   10   26 ar
    21   11   25 1
    22   11   26 ar
    23   12   14 1
    24   12   13 1
    25   12   34 1
    26   12   35 1
    27   13   15 1
    28   13   36 1
    29   13   37 1
    30   14   16 1
    31   14   38 1
    32   14   39 1
    33   15   17 1
    34   15   40 1
    35   15   41 1
    36   16   17 1
    37   16   42 1
    38   16   43 1
    39   17   27 1
    40   17   44 1
    41   18   24 1
    42   18   45 1
    43   18   46 1
    44   18   47 1
    45   19   24 1
    46   19   48 1
    47   19   49 1
    48   19   50 1
    49   20   25 1
    50   20   51 1
    51   20   52 1
    52   20   53 1
    53   21   25 1
    54   21   54 1
    55   21   55 1
    56   21   56 1
    57   22   27 1
    58   22   57 1
    59   22   58 1
    60   23   28 1
    61   23   59 1
    62   23   60 1
    63   24   61 1
    64   25   62 1
    65   27   63 1
    66   28   64 1
