@<TRIPOS>MOLECULE
*****
   35    36     0     0     0
SMALL
NO_CHARGES

@<TRIPOS>ATOM
      1 C1         -2.6276   -1.2997    3.4104 C.ar      1 <0>         0.0000
      2 C2         -3.3095   -3.8043    2.7293 C.ar      1 <0>         0.0000
      3 C3         -1.8693   -2.0426    2.5002 C.ar      1 <0>         0.0000
      4 C4         -4.0563   -3.0392    3.6421 C.ar      1 <0>         0.0000
      5 C5         -0.6406   -1.4326    1.8736 C.2       1 <0>         0.0000
      6 C6          1.9838   -3.0607   -0.2041 C.3       1 <0>         0.0000
      7 C7          0.8735   -0.9172   -0.8859 C.3       1 <0>         0.0000
      8 C8          1.2590   -3.7562   -1.3604 C.3       1 <0>         0.0000
      9 C9          0.1770   -1.6885   -2.0050 C.3       1 <0>         0.0000
     10 C10         1.2216   -1.8309    0.3003 C.3       1 <0>         0.0000
     11 C11         0.4453   -3.4918   -3.6263 C.3       1 <0>         0.0000
     12 C12         0.8353   -2.8057   -4.9253 C.3       1 <0>         0.0000
     13 N1         -2.2175   -3.2968    2.1636 N.ar      1 <0>         0.0000
     14 N2         -3.7288   -1.8053    3.9841 N.ar      1 <0>         0.0000
     15 N3          1.0057   -2.8191   -2.4596 N.3       1 <0>         0.0000
     16 N4          0.0202   -2.2541    1.0242 N.am      1 <0>         0.0000
     17 O1         -0.2983   -0.2778    2.1418 O.2       1 <0>         0.0000
     18 F1          0.1704   -1.6090   -5.0926 F         1 <0>         0.0000
     19 F2          0.4783   -3.6077   -5.9878 F         1 <0>         0.0000
     20 Cl1        -5.4864   -3.7398    4.3639 Cl        1 <0>         0.0000
     21 H1         -2.3349   -0.2876    3.6716 H         1 <0>         0.0000
     22 H2         -3.6041   -4.8170    2.4671 H         1 <0>         0.0000
     23 H3          2.1481   -3.7705    0.6144 H         1 <0>         0.0000
     24 H4          2.9651   -2.7311   -0.5595 H         1 <0>         0.0000
     25 H5          1.8020   -0.4822   -1.2727 H         1 <0>         0.0000
     26 H6          0.2404   -0.0956   -0.5408 H         1 <0>         0.0000
     27 H7          1.8842   -4.5734   -1.7340 H         1 <0>         0.0000
     28 H8          0.3169   -4.2196   -1.0025 H         1 <0>         0.0000
     29 H9         -0.8100   -2.0484   -1.6554 H         1 <0>         0.0000
     30 H10        -0.0068   -1.0243   -2.8500 H         1 <0>         0.0000
     31 H11         1.8370   -1.2731    1.0117 H         1 <0>         0.0000
     32 H12        -0.6536   -3.5879   -3.5934 H         1 <0>         0.0000
     33 H13         0.8595   -4.5025   -3.6891 H         1 <0>         0.0000
     34 H14         1.9065   -2.5986   -4.9919 H         1 <0>         0.0000
     35 H15        -0.3797   -3.1740    0.8781 H         1 <0>         0.0000
@<TRIPOS>BOND
     1    1    3 ar
     2    1   14 ar
     3    1   21 1
     4    2    4 ar
     5    2   13 ar
     6    2   22 1
     7    3    5 1
     8    3   13 ar
     9    4   14 ar
    10    4   20 1
    11    5   16 am
    12    5   17 2
    13    6    8 1
    14    6   10 1
    15    6   23 1
    16    6   24 1
    17    7    9 1
    18    7   10 1
    19    7   25 1
    20    7   26 1
    21    8   15 1
    22    8   27 1
    23    8   28 1
    24    9   15 1
    25    9   29 1
    26    9   30 1
    27   10   16 1
    28   10   31 1
    29   11   12 1
    30   11   15 1
    31   11   32 1
    32   11   33 1
    33   12   18 1
    34   12   19 1
    35   12   34 1
    36   16   35 1
