@<TRIPOS>MOLECULE
*****
   28    29     0     0     0
SMALL
NO_CHARGES

@<TRIPOS>ATOM
      1 C1          0.1179    1.0476    0.1697 C.ar      1 <0>         0.0000
      2 C2         -0.5911    2.0338    0.8790 C.ar      1 <0>         0.0000
      3 C3          1.3946    1.2821   -0.3530 C.ar      1 <0>         0.0000
      4 C4          1.2992    3.5131    0.5300 C.ar      1 <0>         0.0000
      5 C5          0.0116    3.2725    1.0556 C.ar      1 <0>         0.0000
      6 C6          2.0059    2.5304   -0.1769 C.ar      1 <0>         0.0000
      7 C7          1.6696    4.8743    0.8639 C.2       1 <0>         0.0000
      8 C8          0.6674    5.4896    1.5745 C.2       1 <0>         0.0000
      9 C9          0.8214    6.8516    2.0118 C.2       1 <0>         0.0000
     10 C10        -0.4832    4.5232    1.7620 C.3       1 <0>         0.0000
     11 C11        -1.3911    9.0601    3.8926 C.3       1 <0>         0.0000
     12 C12        -0.1096    8.7165    3.1562 C.3       1 <0>         0.0000
     13 O1          1.8423    7.5249    1.7760 O.2       1 <0>         0.0000
     14 O2          3.2505    2.7415   -0.6931 O.3       1 <0>         0.0000
     15 O3          2.8503    5.4013    0.4968 O.3       1 <0>         0.0000
     16 O4         -0.2298    7.3436    2.6992 O.3       1 <0>         0.0000
     17 H1         -0.3344    0.0707    0.0193 H         1 <0>         0.0000
     18 H2         -1.5814    1.8245    1.2742 H         1 <0>         0.0000
     19 H3          1.9271    0.5086   -0.8982 H         1 <0>         0.0000
     20 H4         -1.4135    4.8955    1.3166 H         1 <0>         0.0000
     21 H5         -0.6937    4.3305    2.8208 H         1 <0>         0.0000
     22 H6         -2.2584    8.9683    3.2322 H         1 <0>         0.0000
     23 H7         -1.5379    8.3991    4.7519 H         1 <0>         0.0000
     24 H8         -1.3414   10.0918    4.2554 H         1 <0>         0.0000
     25 H9          0.7696    8.7949    3.8017 H         1 <0>         0.0000
     26 H10         0.0521    9.3617    2.2883 H         1 <0>         0.0000
     27 H11         3.5313    3.6520   -0.4856 H         1 <0>         0.0000
     28 H12         2.8491    6.3346    0.8476 H         1 <0>         0.0000
@<TRIPOS>BOND
     1    1    2 ar
     2    1    3 ar
     3    1   17 1
     4    2    5 ar
     5    2   18 1
     6    3    6 ar
     7    3   19 1
     8    4    5 ar
     9    4    6 ar
    10    4    7 1
    11    5   10 1
    12    6   14 1
    13    7    8 2
    14    7   15 1
    15    8    9 1
    16    8   10 1
    17    9   13 2
    18    9   16 1
    19   10   20 1
    20   10   21 1
    21   11   12 1
    22   11   22 1
    23   11   23 1
    24   11   24 1
    25   12   16 1
    26   12   25 1
    27   12   26 1
    28   14   27 1
    29   15   28 1
