@<TRIPOS>MOLECULE
*****
   54    57     0     0     0
SMALL
NO_CHARGES

@<TRIPOS>ATOM
      1 C1         -2.7190   -0.6442   -0.7049 C.2       1 <0>         0.0000
      2 C2         -1.7410    0.3937   -0.4477 C.2       1 <0>         0.0000
      3 C3         -0.7110   -0.0610    0.3307 C.2       1 <0>         0.0000
      4 C4         -3.9326   -0.5516   -1.4999 C.2       1 <0>         0.0000
      5 C5         -2.4003   -1.8458   -0.1035 C.2       1 <0>         0.0000
      6 C6         -4.3101   -2.9857   -1.0292 C.2       1 <0>         0.0000
      7 C7          1.7699    0.6164    2.9659 C.2       1 <0>         0.0000
      8 C8         -6.9958   -0.7088   -1.8274 C.3       1 <0>         0.0000
      9 C9         -7.1990   -2.1820   -1.5572 C.3       1 <0>         0.0000
     10 C10         0.1077    1.2008    4.5101 C.3       1 <0>         0.0000
     11 C11        -0.4429    1.3775    3.0836 C.3       1 <0>         0.0000
     12 C12        -5.9617   -1.7100   -2.2793 C.3       1 <0>         0.0000
     13 C13        -5.7809   -2.0053   -3.7532 C.3       1 <0>         0.0000
     14 C14        -1.3313    1.8781   -2.4571 C.3       1 <0>         0.0000
     15 C15        -4.9492   -3.8843    3.4211 C.3       1 <0>         0.0000
     16 C16        -1.8411    1.7913   -1.0082 C.3       1 <0>         0.0000
     17 C17         0.5031    0.6565    0.8421 C.3       1 <0>         0.0000
     18 C18        -2.7911   -4.2302    0.4555 C.3       1 <0>         0.0000
     19 C19        -3.1405   -4.1965    1.9404 C.3       1 <0>         0.0000
     20 N1         -4.7150   -1.7366   -1.5168 N.am      1 <0>         0.0000
     21 N2         -3.1511   -2.9878   -0.2347 N.am      1 <0>         0.0000
     22 N3          1.5456    1.1141    4.2489 N.am      1 <0>         0.0000
     23 N4          0.5523    0.6599    2.2955 N.am      1 <0>         0.0000
     24 O1         -4.2954    0.4452   -2.1202 O.2       1 <0>         0.0000
     25 O2         -4.9211   -4.0170   -1.2670 O.2       1 <0>         0.0000
     26 O3          2.8363    0.2206    2.5123 O.2       1 <0>         0.0000
     27 O4         -4.5351   -3.9971    2.0690 O.3       1 <0>         0.0000
     28 S1         -0.9110   -1.7567    0.7909 S.3       1 <0>         0.0000
     29 H1         -7.5745   -0.2208   -2.6058 H         1 <0>         0.0000
     30 H2         -6.7416   -0.0676   -0.9907 H         1 <0>         0.0000
     31 H3         -7.0810   -2.5373   -0.5393 H         1 <0>         0.0000
     32 H4         -7.9216   -2.7391   -2.1456 H         1 <0>         0.0000
     33 H5         -0.1366    2.0464    5.1575 H         1 <0>         0.0000
     34 H6         -0.2828    0.2790    4.9633 H         1 <0>         0.0000
     35 H7         -1.4401    0.9487    2.9559 H         1 <0>         0.0000
     36 H8         -0.4788    2.4404    2.7993 H         1 <0>         0.0000
     37 H9         -5.1173   -1.2660   -4.2119 H         1 <0>         0.0000
     38 H10        -6.7444   -1.9653   -4.2700 H         1 <0>         0.0000
     39 H11        -5.3610   -3.0063   -3.8926 H         1 <0>         0.0000
     40 H12        -0.2815    1.5723   -2.5233 H         1 <0>         0.0000
     41 H13        -1.4152    2.9038   -2.8315 H         1 <0>         0.0000
     42 H14        -1.9243    1.2317   -3.1088 H         1 <0>         0.0000
     43 H15        -6.0293   -3.7248    3.4124 H         1 <0>         0.0000
     44 H16        -4.4619   -3.0328    3.9201 H         1 <0>         0.0000
     45 H17        -4.7252   -4.8001    3.9883 H         1 <0>         0.0000
     46 H18        -2.8858    2.1080   -0.9823 H         1 <0>         0.0000
     47 H19        -1.2734    2.4814   -0.3762 H         1 <0>         0.0000
     48 H20         1.4277    0.1793    0.5044 H         1 <0>         0.0000
     49 H21         0.5042    1.6815    0.4476 H         1 <0>         0.0000
     50 H22        -1.7186   -4.4123    0.3295 H         1 <0>         0.0000
     51 H23        -3.3430   -5.0305   -0.0350 H         1 <0>         0.0000
     52 H24        -2.5904   -3.3965    2.4586 H         1 <0>         0.0000
     53 H25        -2.8342   -5.1555    2.3896 H         1 <0>         0.0000
     54 H26         2.1764    0.7742    4.9645 H         1 <0>         0.0000
@<TRIPOS>BOND
     1    1    2 1
     2    1    5 2
     3    1    4 1
     4    2    3 2
     5    2   16 1
     6    3   17 1
     7    3   28 1
     8    4   20 am
     9    4   24 2
    10    5   21 1
    11    5   28 1
    12    6   21 am
    13    6   20 am
    14    6   25 2
    15    7   22 am
    16    7   23 am
    17    7   26 2
    18    8    9 1
    19    8   12 1
    20    8   29 1
    21    8   30 1
    22    9   12 1
    23    9   31 1
    24    9   32 1
    25   10   11 1
    26   10   22 1
    27   10   33 1
    28   10   34 1
    29   11   23 1
    30   11   35 1
    31   11   36 1
    32   12   13 1
    33   12   20 1
    34   13   37 1
    35   13   38 1
    36   13   39 1
    37   14   16 1
    38   14   40 1
    39   14   41 1
    40   14   42 1
    41   15   27 1
    42   15   43 1
    43   15   44 1
    44   15   45 1
    45   16   46 1
    46   16   47 1
    47   17   23 1
    48   17   48 1
    49   17   49 1
    50   18   19 1
    51   18   21 1
    52   18   50 1
    53   18   51 1
    54   19   27 1
    55   19   52 1
    56   19   53 1
    57   22   54 1
