@<TRIPOS>MOLECULE
*****
   56    57     0     0     0
SMALL
NO_CHARGES

@<TRIPOS>ATOM
      1 C1         -3.2608   -0.8421   -1.2368 C.2       1 <0>         0.0000
      2 C2         -2.2260    0.1174   -0.9248 C.2       1 <0>         0.0000
      3 C3         -1.1663   -0.4646   -0.2827 C.2       1 <0>         0.0000
      4 C4         -4.5336   -0.5968   -1.8938 C.2       1 <0>         0.0000
      5 C5         -2.9558   -2.1222   -0.8230 C.2       1 <0>         0.0000
      6 C6         -5.0045   -3.0452   -1.6796 C.2       1 <0>         0.0000
      7 C7         -2.2988    1.5765   -1.2787 C.3       1 <0>         0.0000
      8 C8         -7.6324   -1.7009   -5.2017 C.3       1 <0>         0.0000
      9 C9         -5.6202   -3.1554   -4.8284 C.3       1 <0>         0.0000
     10 C10        -5.7632    0.4978   -5.1545 C.3       1 <0>         0.0000
     11 C11         0.1233    0.1581    0.1736 C.3       1 <0>         0.0000
     12 C12        -2.6497   -5.3112   -1.5820 C.3       1 <0>         0.0000
     13 C13        -3.4392   -4.5384   -0.5194 C.3       1 <0>         0.0000
     14 C14        -6.5034   -1.6237   -2.9796 C.3       1 <0>         0.0000
     15 C15         3.1057    1.4633   -1.7668 C.3       1 <0>         0.0000
     16 C16         2.2834    1.0302   -0.5538 C.3       1 <0>         0.0000
     17 C17        -2.1310   -6.6383   -1.0594 C.3       1 <0>         0.0000
     18 C18        -6.2685   -1.8076   -4.5020 C.3       1 <0>         0.0000
     19 N1         -5.2845   -1.7689   -2.1699 N.am      1 <0>         0.0000
     20 N2         -3.8047   -3.1934   -0.9796 N.am      1 <0>         0.0000
     21 N3          4.4351    1.9249   -1.3360 N.3       1 <0>         0.0000
     22 N4          0.9591    0.5589   -0.9645 N.3       1 <0>         0.0000
     23 O1         -4.9644    0.5135   -2.1943 O.2       1 <0>         0.0000
     24 O2         -5.7567   -4.0011   -1.8463 O.2       1 <0>         0.0000
     25 O3         -5.3200   -0.8461   -4.9947 O.3       1 <0>         0.0000
     26 F1         -3.2014   -7.4481   -0.6402 F         1 <0>         0.0000
     27 S1         -1.4054   -2.2000   -0.0447 S.3       1 <0>         0.0000
     28 H1         -3.1427    2.0549   -0.7734 H         1 <0>         0.0000
     29 H2         -1.3698    2.0849   -1.0167 H         1 <0>         0.0000
     30 H3         -2.4702    1.6997   -2.3516 H         1 <0>         0.0000
     31 H4         -8.1666   -0.7838   -4.9350 H         1 <0>         0.0000
     32 H5         -7.4989   -1.7200   -6.2875 H         1 <0>         0.0000
     33 H6         -8.2641   -2.5493   -4.9217 H         1 <0>         0.0000
     34 H7         -4.6065   -3.1964   -4.4209 H         1 <0>         0.0000
     35 H8         -5.5466   -3.2636   -5.9144 H         1 <0>         0.0000
     36 H9         -6.1943   -3.9864   -4.4151 H         1 <0>         0.0000
     37 H10        -4.8708    1.0789   -5.3978 H         1 <0>         0.0000
     38 H11        -6.1923    0.9074   -4.2349 H         1 <0>         0.0000
     39 H12        -6.4813    0.5912   -5.9798 H         1 <0>         0.0000
     40 H13        -0.0939    1.0572    0.7633 H         1 <0>         0.0000
     41 H14         0.6451   -0.5348    0.8585 H         1 <0>         0.0000
     42 H15        -1.7866   -4.7212   -1.9136 H         1 <0>         0.0000
     43 H16        -3.2916   -5.4793   -2.4522 H         1 <0>         0.0000
     44 H17        -2.8592   -4.4295    0.4025 H         1 <0>         0.0000
     45 H18        -4.3606   -5.0657   -0.2789 H         1 <0>         0.0000
     46 H19        -6.8985   -0.6280   -2.7810 H         1 <0>         0.0000
     47 H20        -7.2217   -2.3662   -2.6329 H         1 <0>         0.0000
     48 H21         2.5276    2.2077   -2.3361 H         1 <0>         0.0000
     49 H22         3.2515    0.5984   -2.4263 H         1 <0>         0.0000
     50 H23         2.8560    0.2800    0.0182 H         1 <0>         0.0000
     51 H24         2.1395    1.8920    0.1124 H         1 <0>         0.0000
     52 H25        -1.4737   -6.5029   -0.1927 H         1 <0>         0.0000
     53 H26        -1.5921   -7.1884   -1.8367 H         1 <0>         0.0000
     54 H27         4.3408    2.8060   -0.8323 H         1 <0>         0.0000
     55 H28         5.0104    2.1253   -2.1521 H         1 <0>         0.0000
     56 H29         1.0599   -0.2403   -1.5889 H         1 <0>         0.0000
@<TRIPOS>BOND
     1    1    2 1
     2    1    5 2
     3    1    4 1
     4    2    3 2
     5    2    7 1
     6    3   11 1
     7    3   27 1
     8    4   19 am
     9    4   23 2
    10    5   20 1
    11    5   27 1
    12    6   20 am
    13    6   19 am
    14    6   24 2
    15    7   28 1
    16    7   29 1
    17    7   30 1
    18    8   18 1
    19    8   31 1
    20    8   32 1
    21    8   33 1
    22    9   18 1
    23    9   34 1
    24    9   35 1
    25    9   36 1
    26   10   25 1
    27   10   37 1
    28   10   38 1
    29   10   39 1
    30   11   22 1
    31   11   40 1
    32   11   41 1
    33   12   13 1
    34   12   17 1
    35   12   42 1
    36   12   43 1
    37   13   20 1
    38   13   44 1
    39   13   45 1
    40   14   18 1
    41   14   19 1
    42   14   46 1
    43   14   47 1
    44   15   16 1
    45   15   21 1
    46   15   48 1
    47   15   49 1
    48   16   22 1
    49   16   50 1
    50   16   51 1
    51   17   26 1
    52   17   52 1
    53   17   53 1
    54   18   25 1
    55   21   54 1
    56   21   55 1
    57   22   56 1
