@<TRIPOS>MOLECULE
*****
   17    18     0     0     0
SMALL
NO_CHARGES

@<TRIPOS>ATOM
      1 C1          0.5881    0.8905    1.8661 C.ar      1 <0>         0.0000
      2 C2         -4.3815   -2.4385    3.4775 C.2       1 <0>         0.0000
      3 C3          0.2261    0.9401    3.1967 C.ar      1 <0>         0.0000
      4 C4         -0.2066    0.1010    1.0601 C.ar      1 <0>         0.0000
      5 C5         -4.0189   -1.8691    4.7128 C.2       1 <0>         0.0000
      6 C6         -3.4499   -1.9567    2.5907 C.2       1 <0>         0.0000
      7 C7         -1.5246   -0.4612    2.8247 C.ar      1 <0>         0.0000
      8 N1         -0.8283    0.2746    3.7121 N.ar      1 <0>         0.0000
      9 N2         -1.2746   -0.5912    1.5079 N.ar      1 <0>         0.0000
     10 N3         -2.9409   -1.0856    4.6229 N.2       1 <0>         0.0000
     11 N4         -2.6181   -1.1593    3.3204 N.pl3     1 <0>         0.0000
     12 H1          1.4391    1.4351    1.4799 H         1 <0>         0.0000
     13 H2         -5.2026   -3.1054    3.2601 H         1 <0>         0.0000
     14 H3          0.7908    1.5350    3.9068 H         1 <0>         0.0000
     15 H4         -0.0001    0.0005   -0.0001 H         1 <0>         0.0000
     16 H5         -4.4949   -1.9923    5.6752 H         1 <0>         0.0000
     17 H6         -3.3172   -2.1159    1.5287 H         1 <0>         0.0000
@<TRIPOS>BOND
     1    1    4 ar
     2    1    3 ar
     3    1   12 1
     4    2    5 1
     5    2    6 2
     6    2   13 1
     7    3    8 ar
     8    3   14 1
     9    4    9 ar
    10    4   15 1
    11    5   10 2
    12    5   16 1
    13    6   11 1
    14    6   17 1
    15    7    9 ar
    16    7    8 ar
    17    7   11 1
    18   10   11 1
