@<TRIPOS>MOLECULE
*****
   37    39     0     0     0
SMALL
NO_CHARGES

@<TRIPOS>ATOM
      1 C1         -0.5665   -1.7490    2.4553 C.1       1 <0>         0.0000
      2 C2         -1.1149   -6.8453    6.0637 C.1       1 <0>         0.0000
      3 C3          2.0322   -1.0550   -0.1043 C.ar      1 <0>         0.0000
      4 C4          3.1324   -0.7328    0.6903 C.ar      1 <0>         0.0000
      5 C5          0.8158   -1.3890    0.4911 C.ar      1 <0>         0.0000
      6 C6          3.0161   -0.7447    2.0803 C.ar      1 <0>         0.0000
      7 C7          1.9089   -0.1223    5.0894 C.2       1 <0>         0.0000
      8 C8          1.6776   -0.7657    6.3286 C.2       1 <0>         0.0000
      9 C9          0.6995   -1.4008    1.8810 C.ar      1 <0>         0.0000
     10 C10        -0.3717   -6.4827    7.2230 C.2       1 <0>         0.0000
     11 C11         1.7997   -1.0786    2.6757 C.ar      1 <0>         0.0000
     12 C12        -0.3178   -7.1546    8.4675 C.2       1 <0>         0.0000
     13 C13         1.7192   -1.0800    4.1205 C.2       1 <0>         0.0000
     14 C14         1.3627   -2.0707    6.0286 C.2       1 <0>         0.0000
     15 C15         0.5321   -6.4202    9.2615 C.2       1 <0>         0.0000
     16 C16         0.4487   -5.3855    7.3453 C.2       1 <0>         0.0000
     17 C17         1.0360   -3.1777    6.8611 C.2       1 <0>         0.0000
     18 C18        -1.0253   -8.3929    8.8478 C.3       1 <0>         0.0000
     19 C19         1.0078   -6.5739   10.6443 C.3       1 <0>         0.0000
     20 N1         -1.5918   -2.0309    2.9203 N.1       1 <0>         0.0000
     21 N2         -1.7205   -7.1408    5.1189 N.1       1 <0>         0.0000
     22 N3          0.7527   -4.3860    6.4054 N.2       1 <0>         0.0000
     23 O1          1.3858   -2.2704    4.6847 O.3       1 <0>         0.0000
     24 O2          1.0035   -5.3401    8.5850 O.3       1 <0>         0.0000
     25 H1          2.1228   -1.0451   -1.1866 H         1 <0>         0.0000
     26 H2          4.0794   -0.4731    0.2265 H         1 <0>         0.0000
     27 H3         -0.0315   -1.6363   -0.1443 H         1 <0>         0.0000
     28 H4          3.8840   -0.4916    2.6849 H         1 <0>         0.0000
     29 H5          2.1813    0.9110    4.9281 H         1 <0>         0.0000
     30 H6          1.7353   -0.3287    7.3155 H         1 <0>         0.0000
     31 H7          1.0119   -3.0308    7.9809 H         1 <0>         0.0000
     32 H8         -0.4199   -9.2840    8.6145 H         1 <0>         0.0000
     33 H9         -1.2609   -8.4206    9.9254 H         1 <0>         0.0000
     34 H10        -1.9902   -8.4962    8.3223 H         1 <0>         0.0000
     35 H11         1.9340   -7.1739   10.6874 H         1 <0>         0.0000
     36 H12         1.2214   -5.6016   11.1249 H         1 <0>         0.0000
     37 H13         0.2618   -7.0708   11.2917 H         1 <0>         0.0000
@<TRIPOS>BOND
     1    1    9 1
     2    1   20 3
     3    2   10 1
     4    2   21 3
     5    3    4 ar
     6    3    5 ar
     7    3   25 1
     8    4    6 ar
     9    4   26 1
    10    5    9 ar
    11    5   27 1
    12    6   11 ar
    13    6   28 1
    14    7    8 1
    15    7   13 2
    16    7   29 1
    17    8   14 2
    18    8   30 1
    19    9   11 ar
    20   10   12 1
    21   10   16 2
    22   11   13 1
    23   12   15 2
    24   12   18 1
    25   13   23 1
    26   14   17 1
    27   14   23 1
    28   15   19 1
    29   15   24 1
    30   16   22 1
    31   16   24 1
    32   17   22 2
    33   17   31 1
    34   18   32 1
    35   18   33 1
    36   18   34 1
    37   19   35 1
    38   19   36 1
    39   19   37 1
