@<TRIPOS>MOLECULE
*****
   22    22     0     0     0
SMALL
NO_CHARGES

@<TRIPOS>ATOM
      1 C1         -0.0639   -0.1158    1.5108 C.3       1 <0>         0.0000
      2 C2         -0.5165   -1.1226   -0.6751 C.3       1 <0>         0.0000
      3 C3         -0.0490   -1.4457    0.7465 C.3       1 <0>         0.0000
      4 C4         -0.9126   -2.5050    1.4120 C.3       1 <0>         0.0000
      5 C5          1.2992    2.6205    1.9186 C.3       1 <0>         0.0000
      6 N1          0.6055    0.8315    0.5829 N.pl3     1 <0>         0.0000
      7 N2          0.4189    2.1765    0.8252 N.3       1 <0>         0.0000
      8 O1          1.3380    0.3490   -1.8667 O.2       1 <0>         0.0000
      9 O2         -0.9636    1.3362   -1.4744 O.2       1 <0>         0.0000
     10 S1          0.1433    0.4959   -1.0613 S.o2      1 <0>         0.0000
     11 H1         -1.0850    0.2139    1.7354 H         1 <0>         0.0000
     12 H2          0.5036   -0.1942    2.4434 H         1 <0>         0.0000
     13 H3         -0.1501   -1.8474   -1.4060 H         1 <0>         0.0000
     14 H4         -1.6074   -1.0549   -0.7336 H         1 <0>         0.0000
     15 H5          0.9866   -1.8087    0.6967 H         1 <0>         0.0000
     16 H6         -1.9474   -2.1638    1.4716 H         1 <0>         0.0000
     17 H7         -0.5505   -2.7057    2.4216 H         1 <0>         0.0000
     18 H8         -0.8811   -3.4318    0.8369 H         1 <0>         0.0000
     19 H9          2.3469    2.4171    1.6521 H         1 <0>         0.0000
     20 H10         1.1654    3.7002    2.0814 H         1 <0>         0.0000
     21 H11         1.0430    2.0763    2.8395 H         1 <0>         0.0000
     22 H12        -0.5560    2.3828    1.1097 H         1 <0>         0.0000
@<TRIPOS>BOND
     1    1    3 1
     2    1    6 1
     3    1   11 1
     4    1   12 1
     5    2    3 1
     6    2   10 1
     7    2   13 1
     8    2   14 1
     9    3    4 1
    10    3   15 1
    11    4   16 1
    12    4   17 1
    13    4   18 1
    14    5    7 1
    15    5   19 1
    16    5   20 1
    17    5   21 1
    18    6    7 1
    19    6   10 1
    20    7   22 1
    21    8   10 2
    22    9   10 2
