@<TRIPOS>MOLECULE
*****
   53    54     0     0     0
SMALL
NO_CHARGES

@<TRIPOS>ATOM
      1 C1         -2.9747   -0.9563   -1.2663 C.2       1 <0>         0.0000
      2 C2         -1.9552    0.0143   -1.0325 C.2       1 <0>         0.0000
      3 C3         -0.9006   -0.5079   -0.3150 C.2       1 <0>         0.0000
      4 C4         -4.2205   -0.7876   -1.9742 C.2       1 <0>         0.0000
      5 C5         -2.6523   -2.1699   -0.7178 C.2       1 <0>         0.0000
      6 C6         -4.6781   -3.2366   -1.4491 C.2       1 <0>         0.0000
      7 C7         -2.0047    1.4235   -1.4976 C.3       1 <0>         0.0000
      8 C8         -4.3795   -4.3982   -6.3169 C.3       1 <0>         0.0000
      9 C9          0.3438    0.1580    0.1309 C.3       1 <0>         0.0000
     10 C10        -1.9508   -5.2659   -1.0105 C.3       1 <0>         0.0000
     11 C11        -2.9944   -4.5651   -0.1463 C.3       1 <0>         0.0000
     12 C12        -6.2706   -1.8476   -2.7366 C.3       1 <0>         0.0000
     13 C13         3.4976    1.2502   -1.5965 C.3       1 <0>         0.0000
     14 C14         2.5015    1.0186   -0.4728 C.3       1 <0>         0.0000
     15 C15        -5.0898   -3.1012   -5.9931 C.3       1 <0>         0.0000
     16 C16        -6.0179   -1.8505   -4.2332 C.3       1 <0>         0.0000
     17 C17        -1.4892   -6.5922   -0.4399 C.3       1 <0>         0.0000
     18 N1         -5.0011   -1.9672   -2.0254 N.am      1 <0>         0.0000
     19 N2         -3.4360   -3.3180   -0.7700 N.am      1 <0>         0.0000
     20 N3          4.6999    1.8892   -1.1329 N.3       1 <0>         0.0000
     21 N4          1.2906    0.3510   -0.9438 N.3       1 <0>         0.0000
     22 O1         -4.5488    0.2861   -2.4728 O.2       1 <0>         0.0000
     23 O2         -5.4396   -4.2070   -1.5375 O.2       1 <0>         0.0000
     24 O3         -5.3493   -3.0515   -4.5970 O.3       1 <0>         0.0000
     25 F1         -0.5577   -7.1686   -1.2288 F         1 <0>         0.0000
     26 F2         -0.9357   -6.4114    0.7804 F         1 <0>         0.0000
     27 F3         -2.5116   -7.4607   -0.2970 F         1 <0>         0.0000
     28 S1         -1.1477   -2.1575    0.0701 S.3       1 <0>         0.0000
     29 H1         -2.4791    2.0656   -0.7420 H         1 <0>         0.0000
     30 H2         -0.9982    1.8189   -1.7000 H         1 <0>         0.0000
     31 H3         -2.5725    1.5208   -2.4351 H         1 <0>         0.0000
     32 H4         -3.4278   -4.4657   -5.7825 H         1 <0>         0.0000
     33 H5         -5.0006   -5.2573   -6.0429 H         1 <0>         0.0000
     34 H6         -4.1869   -4.4746   -7.3922 H         1 <0>         0.0000
     35 H7          0.1412    1.1524    0.5634 H         1 <0>         0.0000
     36 H8          0.8639   -0.4180    0.9146 H         1 <0>         0.0000
     37 H9         -2.3825   -5.4480   -2.0016 H         1 <0>         0.0000
     38 H10        -1.0814   -4.6134   -1.1542 H         1 <0>         0.0000
     39 H11        -2.5970   -4.3570    0.8525 H         1 <0>         0.0000
     40 H12        -3.8632   -5.2202   -0.0232 H         1 <0>         0.0000
     41 H13        -6.7562   -0.9199   -2.4179 H         1 <0>         0.0000
     42 H14        -6.9006   -2.6968   -2.4551 H         1 <0>         0.0000
     43 H15         3.0731    1.8830   -2.3824 H         1 <0>         0.0000
     44 H16         3.7926    0.2943   -2.0403 H         1 <0>         0.0000
     45 H17         2.9420    0.3788    0.2981 H         1 <0>         0.0000
     46 H18         2.1975    1.9623   -0.0085 H         1 <0>         0.0000
     47 H19        -6.0408   -3.0399   -6.5307 H         1 <0>         0.0000
     48 H20        -4.4676   -2.2439   -6.2667 H         1 <0>         0.0000
     49 H21        -5.3733   -1.0091   -4.5060 H         1 <0>         0.0000
     50 H22        -6.9525   -1.7824   -4.7994 H         1 <0>         0.0000
     51 H23         5.3419    1.9820   -1.8935 H         1 <0>         0.0000
     52 H24         4.4769    2.7942   -0.7716 H         1 <0>         0.0000
     53 H25         1.5502   -0.5544   -1.3442 H         1 <0>         0.0000
@<TRIPOS>BOND
     1    1    2 1
     2    1    5 2
     3    1    4 1
     4    2    3 2
     5    2    7 1
     6    3    9 1
     7    3   28 1
     8    4   18 am
     9    4   22 2
    10    5   19 1
    11    5   28 1
    12    6   19 am
    13    6   18 am
    14    6   23 2
    15    7   29 1
    16    7   30 1
    17    7   31 1
    18    8   15 1
    19    8   32 1
    20    8   33 1
    21    8   34 1
    22    9   21 1
    23    9   35 1
    24    9   36 1
    25   10   11 1
    26   10   17 1
    27   10   37 1
    28   10   38 1
    29   11   19 1
    30   11   39 1
    31   11   40 1
    32   12   16 1
    33   12   18 1
    34   12   41 1
    35   12   42 1
    36   13   14 1
    37   13   20 1
    38   13   43 1
    39   13   44 1
    40   14   21 1
    41   14   45 1
    42   14   46 1
    43   15   24 1
    44   15   47 1
    45   15   48 1
    46   16   24 1
    47   16   49 1
    48   16   50 1
    49   17   25 1
    50   17   26 1
    51   17   27 1
    52   20   51 1
    53   20   52 1
    54   21   53 1
