@<TRIPOS>MOLECULE
*****
   52    54     0     0     0
SMALL
NO_CHARGES

@<TRIPOS>ATOM
      1 C1          7.3054   -3.4191    2.4792 C.ar      1 <0>         0.0000
      2 C2          4.4211   -0.0046   -1.3334 C.ar      1 <0>         0.0000
      3 C3          3.3522    0.0500    0.8326 C.ar      1 <0>         0.0000
      4 C4          7.5467   -3.2149    1.1207 C.ar      1 <0>         0.0000
      5 C5          4.2880    1.3802   -1.4340 C.ar      1 <0>         0.0000
      6 C6          3.2192    1.4348    0.7321 C.ar      1 <0>         0.0000
      7 C7          4.9917   -2.8005    2.1613 C.ar      1 <0>         0.0000
      8 C8          8.5225   -2.4463    6.8869 C.ar      1 <0>         0.0000
      9 C9          7.2187   -0.4801    6.3659 C.ar      1 <0>         0.0000
     10 C10         3.9533   -0.6698   -0.2001 C.ar      1 <0>         0.0000
     11 C11         6.0279   -3.2120    2.9996 C.ar      1 <0>         0.0000
     12 C12         5.2330   -2.5962    0.8028 C.ar      1 <0>         0.0000
     13 C13         7.7106   -3.2075    6.0460 C.ar      1 <0>         0.0000
     14 C14         6.4069   -1.2412    5.5250 C.ar      1 <0>         0.0000
     15 C15         6.6528   -2.6049    5.3651 C.ar      1 <0>         0.0000
     16 C16         8.2766   -1.0826    7.0468 C.ar      1 <0>         0.0000
     17 C17         6.5105   -2.8035    0.2824 C.ar      1 <0>         0.0000
     18 C18         3.6870    2.0999   -0.4012 C.ar      1 <0>         0.0000
     19 C19         8.9921    1.0395    8.1685 C.2       1 <0>         0.0000
     20 C20        10.0607    1.5077    9.1376 C.2       1 <0>         0.0000
     21 C21         7.9952   -4.6657    5.8922 C.3       1 <0>         0.0000
     22 C22         5.2811   -0.5720    4.8068 C.3       1 <0>         0.0000
     23 C23         4.0952   -2.1505   -0.0936 C.3       1 <0>         0.0000
     24 C24         5.7702   -3.4319    4.4519 C.3       1 <0>         0.0000
     25 N1          9.0883   -0.3217    7.8889 N.am      1 <0>         0.0000
     26 O1          8.1913    1.8595    7.7495 O.2       1 <0>         0.0000
     27 O2         10.9021    0.7682    9.6083 O.2       1 <0>         0.0000
     28 O3          6.7643   -2.6072   -1.0418 O.3       1 <0>         0.0000
     29 O4          9.9265    2.8213    9.3760 O.3       1 <0>         0.0000
     30 F1          3.5568    3.4295   -0.4991 F         1 <0>         0.0000
     31 H1          8.1183   -3.7404    3.1251 H         1 <0>         0.0000
     32 H2          4.8905   -0.5571   -2.1431 H         1 <0>         0.0000
     33 H3          2.9853   -0.4594    1.7199 H         1 <0>         0.0000
     34 H4          8.5441   -3.3801    0.7220 H         1 <0>         0.0000
     35 H5          4.6525    1.8985   -2.3159 H         1 <0>         0.0000
     36 H6          2.7507    1.9951    1.5356 H         1 <0>         0.0000
     37 H7          3.9960   -2.6396    2.5679 H         1 <0>         0.0000
     38 H8          9.3472   -2.9175    7.4173 H         1 <0>         0.0000
     39 H9          7.0262    0.5834    6.4898 H         1 <0>         0.0000
     40 H10         7.4421   -5.2417    6.6430 H         1 <0>         0.0000
     41 H11         7.7075   -5.0226    4.8957 H         1 <0>         0.0000
     42 H12         9.0657   -4.8749    6.0096 H         1 <0>         0.0000
     43 H13         5.6207   -0.1969    3.8345 H         1 <0>         0.0000
     44 H14         4.4478   -1.2661    4.6423 H         1 <0>         0.0000
     45 H15         4.8854    0.2701    5.3880 H         1 <0>         0.0000
     46 H16         3.1561   -2.6039    0.2697 H         1 <0>         0.0000
     47 H17         4.2320   -2.5992   -1.0933 H         1 <0>         0.0000
     48 H18         4.7129   -3.2237    4.6931 H         1 <0>         0.0000
     49 H19         5.8914   -4.4989    4.7094 H         1 <0>         0.0000
     50 H20         9.8504   -0.8198    8.3627 H         1 <0>         0.0000
     51 H21         7.6964   -2.7933   -1.2353 H         1 <0>         0.0000
     52 H22        10.6053    3.1563    9.9999 H         1 <0>         0.0000
@<TRIPOS>BOND
     1    1    4 ar
     2    1   11 ar
     3    1   31 1
     4    2    5 ar
     5    2   10 ar
     6    2   32 1
     7    3    6 ar
     8    3   10 ar
     9    3   33 1
    10    4   17 ar
    11    4   34 1
    12    5   18 ar
    13    5   35 1
    14    6   18 ar
    15    6   36 1
    16    7   11 ar
    17    7   12 ar
    18    7   37 1
    19    8   13 ar
    20    8   16 ar
    21    8   38 1
    22    9   14 ar
    23    9   16 ar
    24    9   39 1
    25   10   23 1
    26   11   24 1
    27   12   17 ar
    28   12   23 1
    29   13   15 ar
    30   13   21 1
    31   14   15 ar
    32   14   22 1
    33   15   24 1
    34   16   25 1
    35   17   28 1
    36   18   30 1
    37   19   20 1
    38   19   25 am
    39   19   26 2
    40   20   27 2
    41   20   29 1
    42   21   40 1
    43   21   41 1
    44   21   42 1
    45   22   43 1
    46   22   44 1
    47   22   45 1
    48   23   46 1
    49   23   47 1
    50   24   48 1
    51   24   49 1
    52   25   50 1
    53   28   51 1
    54   29   52 1
