@<TRIPOS>MOLECULE
*****
   21    21     0     0     0
SMALL
NO_CHARGES

@<TRIPOS>ATOM
      1 C1          7.5560   -1.4420   -0.0020 C.ar      1 <0>         0.0000
      2 C2          6.6100   -2.0730    0.8030 C.ar      1 <0>         0.0000
      3 C3          7.1470   -0.5490   -0.9910 C.ar      1 <0>         0.0000
      4 C4          5.2550   -1.8150    0.6240 C.ar      1 <0>         0.0000
      5 C5          5.7940   -0.2860   -1.1790 C.ar      1 <0>         0.0000
      6 C6          4.8490   -0.9230   -0.3730 C.ar      1 <0>         0.0000
      7 C7          2.4070   -1.3980   -0.3430 C.2       1 <0>         0.0000
      8 C8         -0.0500   -1.4080   -0.2450 C.3       1 <0>         0.0000
      9 N1          3.4890   -0.6030   -0.5910 N.am      1 <0>         0.0000
     10 N2          1.2290   -0.7590   -0.5540 N.am      1 <0>         0.0000
     11 O1          2.4670   -2.5640    0.0190 O.2       1 <0>         0.0000
     12 H1          8.5880   -1.6420    0.1370 H         1 <0>         0.0000
     13 H2          6.9230   -2.7510    1.5550 H         1 <0>         0.0000
     14 H3          7.8700   -0.0720   -1.6020 H         1 <0>         0.0000
     15 H4          4.5410   -2.2910    1.2440 H         1 <0>         0.0000
     16 H5          5.4840    0.3890   -1.9330 H         1 <0>         0.0000
     17 H6         -0.8490   -0.8760   -0.7640 H         1 <0>         0.0000
     18 H7         -0.2040   -1.3750    0.8350 H         1 <0>         0.0000
     19 H8         -0.0100   -2.4460   -0.5850 H         1 <0>         0.0000
     20 H9          3.2840    0.2660   -1.0840 H         1 <0>         0.0000
     21 H10         1.2510    0.2620   -0.6380 H         1 <0>         0.0000
@<TRIPOS>BOND
     1    1    2 ar
     2    1    3 ar
     3    1   12 1
     4    2    4 ar
     5    2   13 1
     6    3    5 ar
     7    3   14 1
     8    4    6 ar
     9    4   15 1
    10    5    6 ar
    11    5   16 1
    12    6    9 1
    13    7    9 am
    14    7   10 am
    15    7   11 2
    16    8   10 1
    17    8   17 1
    18    8   18 1
    19    8   19 1
    20    9   20 1
    21   10   21 1
