@<TRIPOS>MOLECULE
*****
   19    20     0     0     0
SMALL
NO_CHARGES

@<TRIPOS>ATOM
      1 C1          1.8851   -1.0363   -0.1124 C.ar      1 <0>         0.0000
      2 C2          2.9210   -1.6309    0.6081 C.ar      1 <0>         0.0000
      3 C3          0.8066   -0.4630    0.5610 C.ar      1 <0>         0.0000
      4 C4          2.8783   -1.6520    2.0022 C.ar      1 <0>         0.0000
      5 C5          0.7638   -0.4841    1.9551 C.ar      1 <0>         0.0000
      6 C6          1.7997   -1.0786    2.6757 C.ar      1 <0>         0.0000
      7 C7          0.9206   -2.1457    4.8590 C.3       1 <0>         0.0000
      8 C8          2.4139   -2.2385    4.9009 C.3       1 <0>         0.0000
      9 C9          1.7552   -1.1005    4.1647 C.3       1 <0>         0.0000
     10 H1          1.9183   -1.0200   -1.1979 H         1 <0>         0.0000
     11 H2          3.7610   -2.0771    0.0835 H         1 <0>         0.0000
     12 H3         -0.0003   -0.0001    0.0002 H         1 <0>         0.0000
     13 H4          3.6909   -2.1172    2.5542 H         1 <0>         0.0000
     14 H5         -0.0804   -0.0342    2.4707 H         1 <0>         0.0000
     15 H6          0.3878   -2.8766    4.2622 H         1 <0>         0.0000
     16 H7          0.4070   -1.8534    5.7672 H         1 <0>         0.0000
     17 H8          2.9075   -2.0072    5.8375 H         1 <0>         0.0000
     18 H9          2.8848   -3.0326    4.3341 H         1 <0>         0.0000
     19 H10         1.8014   -0.1293    4.6418 H         1 <0>         0.0000
@<TRIPOS>BOND
     1    1    3 ar
     2    1    2 ar
     3    1   10 1
     4    2    4 ar
     5    2   11 1
     6    3    5 ar
     7    3   12 1
     8    4    6 ar
     9    4   13 1
    10    5    6 ar
    11    5   14 1
    12    6    9 1
    13    7    8 1
    14    7    9 1
    15    7   15 1
    16    7   16 1
    17    8    9 1
    18    8   17 1
    19    8   18 1
    20    9   19 1
