@<TRIPOS>MOLECULE
*****
   14    13     0     0     0
SMALL
NO_CHARGES

@<TRIPOS>ATOM
      1 C1          0.2285   -1.9225    0.0973 C.3       1 <0>         0.0000
      2 C2         -1.9889    1.3203   -0.6718 C.3       1 <0>         0.0000
      3 C3         -0.3310    0.3149    0.6947 C.3       1 <0>         0.0000
      4 O1          0.0758    1.4612    1.4448 O.3       1 <0>         0.0000
      5 O2          0.6505   -0.7289    0.7439 O.3       1 <0>         0.0000
      6 O3         -0.7124    0.6960   -0.6313 O.3       1 <0>         0.0000
      7 H1          1.0172   -2.6753    0.1696 H         1 <0>         0.0000
      8 H2          0.0071   -1.7108   -0.9518 H         1 <0>         0.0000
      9 H3         -0.6731   -2.2941    0.5901 H         1 <0>         0.0000
     10 H4         -2.2308    1.5901   -1.7026 H         1 <0>         0.0000
     11 H5         -1.9785    2.2140   -0.0427 H         1 <0>         0.0000
     12 H6         -2.7388    0.6207   -0.2951 H         1 <0>         0.0000
     13 H7         -1.2195   -0.0816    1.2011 H         1 <0>         0.0000
     14 H8          0.9078    1.7845    1.0599 H         1 <0>         0.0000
@<TRIPOS>BOND
     1    1    5 1
     2    1    7 1
     3    1    8 1
     4    1    9 1
     5    2    6 1
     6    2   10 1
     7    2   11 1
     8    2   12 1
     9    3    4 1
    10    3    5 1
    11    3    6 1
    12    3   13 1
    13    4   14 1
