@<TRIPOS>MOLECULE
*****
   36    37     0     0     0
SMALL
NO_CHARGES

@<TRIPOS>ATOM
      1 C1         -1.8822    1.3247    0.5531 C.2       1 <0>         0.0000
      2 C2         -0.3258    0.5662   -1.2341 C.3       1 <0>         0.0000
      3 C3         -0.8005   -0.1730   -2.4761 C.3       1 <0>         0.0000
      4 C4         -1.4720    3.4324    1.7785 C.3       1 <0>         0.0000
      5 C5          0.4620    1.9963    1.2671 C.3       1 <0>         0.0000
      6 C6         -0.9123    3.6504    3.1838 C.3       1 <0>         0.0000
      7 C7          0.9884    2.2469    2.6815 C.3       1 <0>         0.0000
      8 C8         -2.3643   -0.6957   -0.8331 C.3       1 <0>         0.0000
      9 C9         -1.2890    0.1305   -0.1302 C.3       1 <0>         0.0000
     10 C10        -2.8656   -1.2561   -3.1426 C.3       1 <0>         0.0000
     11 C11         1.0882    3.8029    4.5197 C.3       1 <0>         0.0000
     12 N1         -0.9914    2.1764    1.2048 N.am      1 <0>         0.0000
     13 N2         -2.2366   -0.3039   -2.2396 N.3       1 <0>         0.0000
     14 N3          0.5551    3.5605    3.1798 N.3       1 <0>         0.0000
     15 O1         -3.1030    1.4979    0.5147 O.2       1 <0>         0.0000
     16 H1          0.7071    0.2956   -0.9880 H         1 <0>         0.0000
     17 H2         -0.3531    1.6509   -1.3984 H         1 <0>         0.0000
     18 H3         -0.5805    0.3905   -3.3882 H         1 <0>         0.0000
     19 H4         -0.3073   -1.1515   -2.5401 H         1 <0>         0.0000
     20 H5         -2.5663    3.4507    1.8095 H         1 <0>         0.0000
     21 H6         -1.1513    4.2383    1.1068 H         1 <0>         0.0000
     22 H7          0.9033    2.7114    0.5617 H         1 <0>         0.0000
     23 H8          0.7613    0.9972    0.9443 H         1 <0>         0.0000
     24 H9         -1.2208    4.6461    3.5245 H         1 <0>         0.0000
     25 H10        -1.3510    2.9177    3.8744 H         1 <0>         0.0000
     26 H11         0.6499    1.4421    3.3476 H         1 <0>         0.0000
     27 H12         2.0839    2.2065    2.6511 H         1 <0>         0.0000
     28 H13        -2.1376   -1.7612   -0.6967 H         1 <0>         0.0000
     29 H14        -3.3747   -0.5062   -0.4560 H         1 <0>         0.0000
     30 H15        -0.7739   -0.4639    0.6314 H         1 <0>         0.0000
     31 H16        -3.9361   -1.3230   -2.9318 H         1 <0>         0.0000
     32 H17        -2.4197   -2.2466   -3.0177 H         1 <0>         0.0000
     33 H18        -2.7303   -0.9392   -4.1802 H         1 <0>         0.0000
     34 H19         0.7617    4.7809    4.8827 H         1 <0>         0.0000
     35 H20         2.1812    3.7813    4.5013 H         1 <0>         0.0000
     36 H21         0.7341    3.0343    5.2120 H         1 <0>         0.0000
@<TRIPOS>BOND
     1    1    9 1
     2    1   12 am
     3    1   15 2
     4    2    3 1
     5    2    9 1
     6    2   16 1
     7    2   17 1
     8    3   13 1
     9    3   18 1
    10    3   19 1
    11    4    6 1
    12    4   12 1
    13    4   20 1
    14    4   21 1
    15    5    7 1
    16    5   12 1
    17    5   22 1
    18    5   23 1
    19    6   14 1
    20    6   24 1
    21    6   25 1
    22    7   14 1
    23    7   26 1
    24    7   27 1
    25    8    9 1
    26    8   13 1
    27    8   28 1
    28    8   29 1
    29    9   30 1
    30   10   13 1
    31   10   31 1
    32   10   32 1
    33   10   33 1
    34   11   14 1
    35   11   34 1
    36   11   35 1
    37   11   36 1
