@<TRIPOS>MOLECULE
*****
   12    12     0     0     0
SMALL
NO_CHARGES

@<TRIPOS>ATOM
      1 C1          1.4796   -0.5725    0.2055 C.2       1 <0>         0.0000
      2 C2         -1.0318   -0.4011    0.7219 C.3       1 <0>         0.0000
      3 C3         -0.4899    0.9973    0.7151 C.3       1 <0>         0.0000
      4 C4          0.1519   -0.0595   -0.1414 C.3       1 <0>         0.0000
      5 O1          1.9292   -0.6463    1.3394 O.2       1 <0>         0.0000
      6 O2          2.1508   -0.9555   -0.9081 O.3       1 <0>         0.0000
      7 F1         -0.1114    0.0359   -1.5049 F         1 <0>         0.0000
      8 H1         -0.8715   -0.9984    1.6111 H         1 <0>         0.0000
      9 H2         -1.9801   -0.5776    0.2294 H         1 <0>         0.0000
     10 H3         -1.0735    1.7626    0.2180 H         1 <0>         0.0000
     11 H4          0.0338    1.3384    1.5998 H         1 <0>         0.0000
     12 H5          1.6200   -0.8173   -1.7215 H         1 <0>         0.0000
@<TRIPOS>BOND
     1    1    4 1
     2    1    5 2
     3    1    6 1
     4    2    3 1
     5    2    4 1
     6    2    8 1
     7    2    9 1
     8    3    4 1
     9    3   10 1
    10    3   11 1
    11    4    7 1
    12    6   12 1
