@<TRIPOS>MOLECULE
*****
   46    50     0     0     0
SMALL
NO_CHARGES

@<TRIPOS>ATOM
      1 C1          0.4988   -4.5152   -5.4145 C.ar      1 <0>         0.0000
      2 C2          1.4445   -5.5000   -5.1396 C.ar      1 <0>         0.0000
      3 C3          0.0705   -3.6357   -4.4137 C.ar      1 <0>         0.0000
      4 C4         -0.4106   -1.9609   -1.5014 C.ar      1 <0>         0.0000
      5 C5          1.9902   -5.6361   -3.8603 C.ar      1 <0>         0.0000
      6 C6         -0.3661   -1.5044   -0.1792 C.ar      1 <0>         0.0000
      7 C7          1.2867   -3.1868    0.3984 C.ar      1 <0>         0.0000
      8 C8          0.6064   -3.7532   -3.1139 C.ar      1 <0>         0.0000
      9 C9          0.4035   -3.0469   -1.8858 C.ar      1 <0>         0.0000
     10 C10         1.5520   -4.7495   -2.8700 C.ar      1 <0>         0.0000
     11 C11         1.2311   -3.6322   -0.9273 C.ar      1 <0>         0.0000
     12 C12         0.4708   -2.1099    0.7550 C.ar      1 <0>         0.0000
     13 C13        -0.7639   -2.8593    4.9982 C.2       1 <0>         0.0000
     14 C14         0.1462   -2.1436    4.3291 C.2       1 <0>         0.0000
     15 C15        -1.2534   -4.2183    4.5505 C.3       1 <0>         0.0000
     16 C16        -1.1242   -3.4922    7.3374 C.3       1 <0>         0.0000
     17 C17        -2.9403   -2.4067    6.0283 C.3       1 <0>         0.0000
     18 C18        -1.6429   -4.8587    6.8449 C.3       1 <0>         0.0000
     19 C19        -3.3983   -3.8094    5.5792 C.3       1 <0>         0.0000
     20 C20        -1.4237   -2.4118    6.2845 C.3       1 <0>         0.0000
     21 C21         0.7917   -2.5925    3.0615 C.3       1 <0>         0.0000
     22 N1          1.9113   -4.6543   -1.5462 N.pl3     1 <0>         0.0000
     23 N2         -2.2628   -4.7590    5.5021 N.3       1 <0>         0.0000
     24 O1          0.4962   -1.6462    2.0367 O.3       1 <0>         0.0000
     25 F1          0.5110   -0.9454    4.8412 F         1 <0>         0.0000
     26 H1          0.0876   -4.4277   -6.4164 H         1 <0>         0.0000
     27 H2          1.7640   -6.1731   -5.9309 H         1 <0>         0.0000
     28 H3         -0.6682   -2.8730   -4.6436 H         1 <0>         0.0000
     29 H4         -1.0692   -1.4791   -2.2186 H         1 <0>         0.0000
     30 H5          2.7268   -6.4034   -3.6467 H         1 <0>         0.0000
     31 H6         -0.9948   -0.6671    0.1139 H         1 <0>         0.0000
     32 H7          1.9419   -3.6606    1.1226 H         1 <0>         0.0000
     33 H8         -1.7009   -4.1502    3.5513 H         1 <0>         0.0000
     34 H9         -0.4131   -4.9199    4.4799 H         1 <0>         0.0000
     35 H10        -1.6078   -3.2333    8.2870 H         1 <0>         0.0000
     36 H11        -0.0452   -3.5505    7.5271 H         1 <0>         0.0000
     37 H12        -3.1939   -1.6683    5.2576 H         1 <0>         0.0000
     38 H13        -3.4730   -2.1186    6.9426 H         1 <0>         0.0000
     39 H14        -0.8198   -5.5838    6.8192 H         1 <0>         0.0000
     40 H15        -2.3698   -5.2638    7.5600 H         1 <0>         0.0000
     41 H16        -4.1582   -4.1949    6.2704 H         1 <0>         0.0000
     42 H17        -3.8940   -3.7457    4.6024 H         1 <0>         0.0000
     43 H18        -1.0765   -1.4287    6.6181 H         1 <0>         0.0000
     44 H19         0.4344   -3.5764    2.7413 H         1 <0>         0.0000
     45 H20         1.8771   -2.6368    3.1941 H         1 <0>         0.0000
     46 H21         2.5841   -5.2545   -1.0897 H         1 <0>         0.0000
@<TRIPOS>BOND
     1    1    2 ar
     2    1    3 ar
     3    1   26 1
     4    2    5 ar
     5    2   27 1
     6    3    8 ar
     7    3   28 1
     8    4    6 ar
     9    4    9 ar
    10    4   29 1
    11    5   10 ar
    12    5   30 1
    13    6   12 ar
    14    6   31 1
    15    7   11 ar
    16    7   12 ar
    17    7   32 1
    18    8    9 1
    19    8   10 ar
    20    9   11 ar
    21   10   22 1
    22   11   22 1
    23   12   24 1
    24   13   14 2
    25   13   15 1
    26   13   20 1
    27   14   21 1
    28   14   25 1
    29   15   23 1
    30   15   33 1
    31   15   34 1
    32   16   18 1
    33   16   20 1
    34   16   35 1
    35   16   36 1
    36   17   19 1
    37   17   20 1
    38   17   37 1
    39   17   38 1
    40   18   23 1
    41   18   39 1
    42   18   40 1
    43   19   23 1
    44   19   41 1
    45   19   42 1
    46   20   43 1
    47   21   24 1
    48   21   44 1
    49   21   45 1
    50   22   46 1
