@<TRIPOS>MOLECULE
*****
   30    32     0     0     0
SMALL
NO_CHARGES

@<TRIPOS>ATOM
      1 C1          1.0910   -0.5759   -1.8998 C.ar      1 <0>         0.0000
      2 C2         -0.3080   -0.6711   -1.9241 C.ar      1 <0>         0.0000
      3 C3          1.7508   -0.0017   -0.8065 C.ar      1 <0>         0.0000
      4 C4         -1.0652   -0.1957   -0.8476 C.ar      1 <0>         0.0000
      5 C5          0.9966    0.4666    0.2707 C.ar      1 <0>         0.0000
      6 C6         -0.3969    0.3585    0.2433 C.ar      1 <0>         0.0000
      7 C7         -2.1149   -1.1124    2.3381 C.cat     1 <0>         0.0000
      8 C8          1.4634    1.1555    1.5354 C.3       1 <0>         0.0000
      9 C9          0.2272    1.0850    2.4659 C.3       1 <0>         0.0000
     10 C10        -2.7961   -3.2763    2.7946 C.3       1 <0>         0.0000
     11 C11        -1.2710   -3.2034    2.5961 C.3       1 <0>         0.0000
     12 C12        -0.9827    0.9560    1.5054 C.3       1 <0>         0.0000
     13 N1         -3.1277   -1.8400    2.8349 N.pl3     1 <0>         0.0000
     14 N2         -2.1276    0.1802    2.0698 N.pl3     1 <0>         0.0000
     15 O1         -1.0270   -1.8266    2.1346 O.3       1 <0>         0.0000
     16 H1          1.6678   -0.9474   -2.7421 H         1 <0>         0.0000
     17 H2         -0.8042   -1.1092   -2.7854 H         1 <0>         0.0000
     18 H3          2.8352    0.0746   -0.7999 H         1 <0>         0.0000
     19 H4         -2.1514   -0.2606   -0.8716 H         1 <0>         0.0000
     20 H5          2.3444    0.6858    1.9812 H         1 <0>         0.0000
     21 H6          1.7293    2.1970    1.3205 H         1 <0>         0.0000
     22 H7          0.2891    0.1864    3.0849 H         1 <0>         0.0000
     23 H8          0.1346    1.9455    3.1319 H         1 <0>         0.0000
     24 H9         -3.3064   -3.7668    1.9610 H         1 <0>         0.0000
     25 H10        -3.0697   -3.7645    3.7309 H         1 <0>         0.0000
     26 H11        -0.7107   -3.3275    3.5235 H         1 <0>         0.0000
     27 H12        -0.8870   -3.8679    1.8248 H         1 <0>         0.0000
     28 H13        -1.4188    1.9382    1.2972 H         1 <0>         0.0000
     29 H14        -4.0795   -1.4969    2.8914 H         1 <0>         0.0000
     30 H15        -2.9898    0.6795    2.2555 H         1 <0>         0.0000
@<TRIPOS>BOND
     1    1    2 ar
     2    1    3 ar
     3    1   16 1
     4    2    4 ar
     5    2   17 1
     6    3    5 ar
     7    3   18 1
     8    4    6 ar
     9    4   19 1
    10    5    6 ar
    11    5    8 1
    12    6   12 1
    13    7   13 1
    14    7   14 2
    15    7   15 1
    16    8    9 1
    17    8   20 1
    18    8   21 1
    19    9   12 1
    20    9   22 1
    21    9   23 1
    22   10   11 1
    23   10   13 1
    24   10   24 1
    25   10   25 1
    26   11   15 1
    27   11   26 1
    28   11   27 1
    29   12   14 1
    30   12   28 1
    31   13   29 1
    32   14   30 1
