@<TRIPOS>MOLECULE
*****
   31    32     0     0     0
SMALL
NO_CHARGES

@<TRIPOS>ATOM
      1 C1          1.8851   -1.0363   -0.1124 C.ar      1 <0>         0.0000
      2 C2          0.7638   -0.4841    1.9551 C.ar      1 <0>         0.0000
      3 C3          0.8066   -0.4630    0.5610 C.ar      1 <0>         0.0000
      4 C4          2.9210   -1.6309    0.6081 C.ar      1 <0>         0.0000
      5 C5          1.7997   -1.0786    2.6757 C.ar      1 <0>         0.0000
      6 C6          2.8783   -1.6520    2.0022 C.ar      1 <0>         0.0000
      7 C7          3.5894   -3.6562    3.2649 C.2       1 <0>         0.0000
      8 C8         -1.0209   -0.6350   -1.2581 C.3       1 <0>         0.0000
      9 C9         -1.7146   -0.2936    0.0235 C.3       1 <0>         0.0000
     10 C10        -0.3004    0.1715   -0.2089 C.3       1 <0>         0.0000
     11 C11         4.0646   -2.2375   -0.1371 C.3       1 <0>         0.0000
     12 C12         1.7298   -1.0884    4.1677 C.3       1 <0>         0.0000
     13 C13         3.9893   -2.2892    2.7748 C.3       1 <0>         0.0000
     14 O1          2.4736   -4.1375    3.1131 O.2       1 <0>         0.0000
     15 O2          4.5906   -4.2930    3.9225 O.3       1 <0>         0.0000
     16 H1          1.9183   -1.0199   -1.1994 H         1 <0>         0.0000
     17 H2         -0.0773   -0.0373    2.4801 H         1 <0>         0.0000
     18 H3         -0.7364   -1.6686   -1.4161 H         1 <0>         0.0000
     19 H4         -1.3366   -0.1181   -2.1565 H         1 <0>         0.0000
     20 H5         -2.4975    0.4550   -0.0107 H         1 <0>         0.0000
     21 H6         -1.8982   -1.0976    0.7259 H         1 <0>         0.0000
     22 H7         -0.1698    1.2256   -0.4198 H         1 <0>         0.0000
     23 H8          4.8516   -1.4917   -0.2974 H         1 <0>         0.0000
     24 H9          4.4920   -3.0842    0.4140 H         1 <0>         0.0000
     25 H10         3.7423   -2.6215   -1.1129 H         1 <0>         0.0000
     26 H11         1.2157   -1.9910    4.5178 H         1 <0>         0.0000
     27 H12         2.7326   -1.0626    4.6115 H         1 <0>         0.0000
     28 H13         1.1910   -0.2104    4.5447 H         1 <0>         0.0000
     29 H14         4.3035   -1.6673    3.6202 H         1 <0>         0.0000
     30 H15         4.8843   -2.4025    2.1521 H         1 <0>         0.0000
     31 H16         5.4374   -3.8006    3.9757 H         1 <0>         0.0000
@<TRIPOS>BOND
     1    1    3 ar
     2    1    4 ar
     3    1   16 1
     4    2    3 ar
     5    2    5 ar
     6    2   17 1
     7    3   10 1
     8    4    6 ar
     9    4   11 1
    10    5    6 ar
    11    5   12 1
    12    6   13 1
    13    7   13 1
    14    7   14 2
    15    7   15 1
    16    8    9 1
    17    8   10 1
    18    8   18 1
    19    8   19 1
    20    9   10 1
    21    9   20 1
    22    9   21 1
    23   10   22 1
    24   11   23 1
    25   11   24 1
    26   11   25 1
    27   12   26 1
    28   12   27 1
    29   12   28 1
    30   13   29 1
    31   13   30 1
    32   15   31 1
