@<TRIPOS>MOLECULE
*****
   32    35     0     0     0
SMALL
NO_CHARGES

@<TRIPOS>ATOM
      1 C1         -1.5295    0.1416    3.0270 C.ar      1 <0>         0.0000
      2 C2          1.5865    3.3255   -4.5322 C.ar      1 <0>         0.0000
      3 C3         -1.1399   -1.2120    2.9744 C.ar      1 <0>         0.0000
      4 C4          1.9371    3.6053   -3.2065 C.ar      1 <0>         0.0000
      5 C5         -1.2607    0.9823    1.9553 C.ar      1 <0>         0.0000
      6 C6          0.8710    2.1672   -4.8241 C.ar      1 <0>         0.0000
      7 C7         -0.4916   -1.7185    1.8556 C.ar      1 <0>         0.0000
      8 C8          1.5550    2.7405   -2.1834 C.ar      1 <0>         0.0000
      9 C9         -0.5986    0.4801    0.8204 C.ar      1 <0>         0.0000
     10 C10         0.5031    1.2733   -3.8075 C.ar      1 <0>         0.0000
     11 C11        -0.2141   -0.8760    0.7608 C.ar      1 <0>         0.0000
     12 C12         0.8346    1.5762   -2.4748 C.ar      1 <0>         0.0000
     13 C13        -0.2973    1.3769   -0.2992 C.2       1 <0>         0.0000
     14 C14         0.6800   -0.6173   -1.3421 C.2       1 <0>         0.0000
     15 C15        -0.2169    0.0268   -4.2387 C.2       1 <0>         0.0000
     16 C16         1.2381   -1.2023   -2.6155 C.3       1 <0>         0.0000
     17 N1          0.4096   -1.4114   -0.3584 N.2       1 <0>         0.0000
     18 N2          0.4088    0.7491   -1.3693 N.am      1 <0>         0.0000
     19 N3          0.2398   -1.1390   -3.6777 N.am      1 <0>         0.0000
     20 O1         -0.5943    2.5637   -0.3408 O.2       1 <0>         0.0000
     21 O2         -1.1044    0.0415   -5.0878 O.2       1 <0>         0.0000
     22 H1         -2.0396    0.5248    3.9063 H         1 <0>         0.0000
     23 H2          1.8704    4.0058   -5.3301 H         1 <0>         0.0000
     24 H3         -1.3525   -1.8664    3.8159 H         1 <0>         0.0000
     25 H4          2.4985    4.5036   -2.9653 H         1 <0>         0.0000
     26 H5         -1.5468    2.0294    1.9665 H         1 <0>         0.0000
     27 H6          0.5809    1.9283   -5.8425 H         1 <0>         0.0000
     28 H7         -0.1913   -2.7602    1.7943 H         1 <0>         0.0000
     29 H8          1.7944    2.9755   -1.1530 H         1 <0>         0.0000
     30 H9          2.1495   -0.6849   -2.9297 H         1 <0>         0.0000
     31 H10         1.4810   -2.2455   -2.4211 H         1 <0>         0.0000
     32 H11        -0.3191   -1.9622   -3.8727 H         1 <0>         0.0000
@<TRIPOS>BOND
     1    1    3 ar
     2    1    5 ar
     3    1   22 1
     4    2    4 ar
     5    2    6 ar
     6    2   23 1
     7    3    7 ar
     8    3   24 1
     9    4    8 ar
    10    4   25 1
    11    5    9 ar
    12    5   26 1
    13    6   10 ar
    14    6   27 1
    15    7   11 ar
    16    7   28 1
    17    8   12 ar
    18    8   29 1
    19    9   11 ar
    20    9   13 1
    21   10   12 ar
    22   10   15 1
    23   11   17 1
    24   12   18 1
    25   13   18 am
    26   13   20 2
    27   14   16 1
    28   14   17 2
    29   14   18 1
    30   15   19 am
    31   15   21 2
    32   16   19 1
    33   16   30 1
    34   16   31 1
    35   19   32 1
