@<TRIPOS>MOLECULE
*****
   36    39     0     0     0
SMALL
NO_CHARGES

@<TRIPOS>ATOM
      1 C1         -4.1235   -5.7099   -4.2900 C.2       1 <0>         0.0000
      2 C2         -3.1296   -5.0155   -3.5599 C.2       1 <0>         0.0000
      3 C3         -5.1458   -5.9572   -3.4036 C.2       1 <0>         0.0000
      4 C4         -3.6155   -4.8878   -2.2794 C.2       1 <0>         0.0000
      5 C5         -0.1313   -2.6708   -0.4518 C.2       1 <0>         0.0000
      6 C6         -3.0372   -4.2591   -1.0640 C.2       1 <0>         0.0000
      7 C7          1.8305   -3.5056   -1.6643 C.3       1 <0>         0.0000
      8 C8          0.7592   -1.3120   -2.2888 C.3       1 <0>         0.0000
      9 C9          2.0215   -2.7338    0.7198 C.3       1 <0>         0.0000
     10 C10         0.9506   -0.5398    0.0954 C.3       1 <0>         0.0000
     11 C11         2.9918   -1.3402   -1.1338 C.3       1 <0>         0.0000
     12 C12         0.5017   -2.7539   -1.8280 C.3       1 <0>         0.0000
     13 C13         0.6972   -1.9661    0.6037 C.3       1 <0>         0.0000
     14 C14         2.7344   -2.7770   -0.6479 C.3       1 <0>         0.0000
     15 C15         1.6616   -0.5801   -1.2734 C.3       1 <0>         0.0000
     16 N1         -1.2951   -3.1589   -0.1792 N.2       1 <0>         0.0000
     17 O1         -3.6151   -4.2344    0.0123 O.2       1 <0>         0.0000
     18 O2         -4.8441   -5.4592   -2.1759 O.3       1 <0>         0.0000
     19 O3         -1.8115   -3.7426   -1.3427 O.3       1 <0>         0.0000
     20 H1         -4.0977   -5.9952   -5.3318 H         1 <0>         0.0000
     21 H2         -2.1786   -4.6550   -3.9254 H         1 <0>         0.0000
     22 H3         -6.1035   -6.4502   -3.4856 H         1 <0>         0.0000
     23 H4          1.6429   -4.5305   -1.3206 H         1 <0>         0.0000
     24 H5          2.3400   -3.5776   -2.6328 H         1 <0>         0.0000
     25 H6          1.2350   -1.3155   -3.2769 H         1 <0>         0.0000
     26 H7         -0.1918   -0.7741   -2.3895 H         1 <0>         0.0000
     27 H8          2.6685   -2.2524    1.4630 H         1 <0>         0.0000
     28 H9          1.8341   -3.7569    1.0691 H         1 <0>         0.0000
     29 H10         0.0001   -0.0001   -0.0001 H         1 <0>         0.0000
     30 H11         1.5638    0.0113    0.8187 H         1 <0>         0.0000
     31 H12         3.5140   -1.3597   -2.0982 H         1 <0>         0.0000
     32 H13         3.6477   -0.8185   -0.4262 H         1 <0>         0.0000
     33 H14        -0.1562   -3.2750   -2.5299 H         1 <0>         0.0000
     34 H15         0.1678   -1.9520    1.5615 H         1 <0>         0.0000
     35 H16         3.6855   -3.3122   -0.5509 H         1 <0>         0.0000
     36 H17         1.8524    0.4418   -1.6197 H         1 <0>         0.0000
@<TRIPOS>BOND
     1    1    2 1
     2    1    3 2
     3    1   20 1
     4    2    4 2
     5    2   21 1
     6    3   18 1
     7    3   22 1
     8    4    6 1
     9    4   18 1
    10    5   13 1
    11    5   12 1
    12    5   16 2
    13    6   17 2
    14    6   19 1
    15    7   12 1
    16    7   14 1
    17    7   23 1
    18    7   24 1
    19    8   12 1
    20    8   15 1
    21    8   25 1
    22    8   26 1
    23    9   13 1
    24    9   14 1
    25    9   27 1
    26    9   28 1
    27   10   13 1
    28   10   15 1
    29   10   29 1
    30   10   30 1
    31   11   15 1
    32   11   14 1
    33   11   31 1
    34   11   32 1
    35   12   33 1
    36   13   34 1
    37   14   35 1
    38   15   36 1
    39   16   19 1
