@<TRIPOS>MOLECULE
*****
   19    19     0     0     0
SMALL
NO_CHARGES

@<TRIPOS>ATOM
      1 C1          1.3850   -0.0537    1.6164 C.ar      1 <0>         0.0000
      2 C2          0.1996   -0.4372    0.9737 C.ar      1 <0>         0.0000
      3 C3          1.6947   -0.5783    2.8642 C.ar      1 <0>         0.0000
      4 C4         -0.6223   -1.3458    1.6397 C.ar      1 <0>         0.0000
      5 C5          0.7900   -1.4989    3.4587 C.ar      1 <0>         0.0000
      6 C6          2.2292   -1.7162    5.4319 C.3       1 <0>         0.0000
      7 C7          0.0516   -2.9928    5.2433 C.3       1 <0>         0.0000
      8 N1         -0.3525   -1.8691    2.8417 N.ar      1 <0>         0.0000
      9 N2          1.0294   -2.0605    4.6907 N.pl3     1 <0>         0.0000
     10 H1          2.0655    0.6523    1.1460 H         1 <0>         0.0000
     11 H2         -0.0759   -0.0484   -0.0015 H         1 <0>         0.0000
     12 H3          2.6095   -0.2849    3.3654 H         1 <0>         0.0000
     13 H4         -1.5559   -1.6769    1.1846 H         1 <0>         0.0000
     14 H5          2.2369   -2.2615    6.3762 H         1 <0>         0.0000
     15 H6          2.2750   -0.6429    5.6639 H         1 <0>         0.0000
     16 H7          3.1417   -1.9854    4.8822 H         1 <0>         0.0000
     17 H8          0.4055   -3.3350    6.2175 H         1 <0>         0.0000
     18 H9         -0.0850   -3.8600    4.5888 H         1 <0>         0.0000
     19 H10        -0.9275   -2.5175    5.3662 H         1 <0>         0.0000
@<TRIPOS>BOND
     1    1    2 ar
     2    1    3 ar
     3    1   10 1
     4    2    4 ar
     5    2   11 1
     6    3    5 ar
     7    3   12 1
     8    4    8 ar
     9    4   13 1
    10    5    8 ar
    11    5    9 1
    12    6    9 1
    13    6   14 1
    14    6   15 1
    15    6   16 1
    16    7    9 1
    17    7   17 1
    18    7   18 1
    19    7   19 1
