@<TRIPOS>MOLECULE
*****
   14    13     0     0     0
SMALL
NO_CHARGES

@<TRIPOS>ATOM
      1 C1          1.0790   -0.5420   -0.3910 C.3       1 <0>         0.0000
      2 C2          3.8120   -0.0270    1.1190 C.3       1 <0>         0.0000
      3 C3          2.3540   -1.3820   -0.4080 C.3       1 <0>         0.0000
      4 C4          3.5860   -0.4820   -0.3210 C.3       1 <0>         0.0000
      5 H1          0.2025   -1.2036   -0.4542 H         1 <0>         0.0000
      6 H2          1.0343    0.0375    0.5429 H         1 <0>         0.0000
      7 H3          1.0817    0.1458   -1.2495 H         1 <0>         0.0000
      8 H4          4.7011    0.6190    1.1647 H         1 <0>         0.0000
      9 H5          2.9328    0.5342    1.4683 H         1 <0>         0.0000
     10 H6          3.9646   -0.9066    1.7617 H         1 <0>         0.0000
     11 H7          2.3463   -2.0699    0.4503 H         1 <0>         0.0000
     12 H8          2.3938   -1.9616   -1.3421 H         1 <0>         0.0000
     13 H9          4.4681   -1.0405   -0.6673 H         1 <0>         0.0000
     14 H10         3.4363    0.4003   -0.9607 H         1 <0>         0.0000
@<TRIPOS>BOND
     1    1    3 1
     2    1    5 1
     3    1    6 1
     4    1    7 1
     5    2    4 1
     6    2    8 1
     7    2    9 1
     8    2   10 1
     9    3    4 1
    10    3   11 1
    11    3   12 1
    12    4   13 1
    13    4   14 1
