@<TRIPOS>MOLECULE
*****
   22    23     0     0     0
SMALL
NO_CHARGES

@<TRIPOS>ATOM
      1 C1          5.6260    1.4520    1.1800 C.ar      1 <0>         0.0000
      2 C2          5.8150    0.1210    1.5360 C.ar      1 <0>         0.0000
      3 C3          4.4390    1.8480    0.5710 C.ar      1 <0>         0.0000
      4 C4          4.8210   -0.8160    1.2770 C.ar      1 <0>         0.0000
      5 C5          3.4420    0.9130    0.3120 C.ar      1 <0>         0.0000
      6 C6         -1.0490   -2.4440   -2.3790 C.2       1 <0>         0.0000
      7 C7         -1.2130   -3.4370   -1.4670 C.2       1 <0>         0.0000
      8 C8          3.6230   -0.4390    0.6540 C.ar      1 <0>         0.0000
      9 C9          0.6210   -1.9680   -1.0670 C.2       1 <0>         0.0000
     10 C10         2.5960   -1.4500    0.3810 C.2       1 <0>         0.0000
     11 N1          0.0010   -1.5990   -2.1510 N.2       1 <0>         0.0000
     12 N2          1.7230   -1.2180   -0.6530 N.am      1 <0>         0.0000
     13 O1          2.5050   -2.4910    1.0160 O.2       1 <0>         0.0000
     14 S1         -0.0180   -3.3490   -0.2430 S.3       1 <0>         0.0000
     15 H1          6.3850    2.1670    1.3780 H         1 <0>         0.0000
     16 H2          6.7170   -0.1790    2.0060 H         1 <0>         0.0000
     17 H3          4.2950    2.8650    0.3080 H         1 <0>         0.0000
     18 H4          4.9690   -1.8300    1.5540 H         1 <0>         0.0000
     19 H5          2.5380    1.2370   -0.1360 H         1 <0>         0.0000
     20 H6         -1.6860   -2.3200   -3.2190 H         1 <0>         0.0000
     21 H7         -1.9580   -4.1900   -1.4590 H         1 <0>         0.0000
     22 H8          1.9070   -0.3980   -1.2360 H         1 <0>         0.0000
@<TRIPOS>BOND
     1    1    2 ar
     2    1    3 ar
     3    1   15 1
     4    2    4 ar
     5    2   16 1
     6    3    5 ar
     7    3   17 1
     8    4    8 ar
     9    4   18 1
    10    5    8 ar
    11    5   19 1
    12    6    7 2
    13    6   11 1
    14    6   20 1
    15    7   14 1
    16    7   21 1
    17    8   10 1
    18    9   11 2
    19    9   12 1
    20    9   14 1
    21   10   12 am
    22   10   13 2
    23   12   22 1
