@<TRIPOS>MOLECULE
*****
   20    21     0     0     0
SMALL
NO_CHARGES

@<TRIPOS>ATOM
      1 C1          0.9428    2.6760   -0.7754 C.ar      1 <0>         0.0000
      2 C2          1.9678    3.6122   -0.6222 C.ar      1 <0>         0.0000
      3 C3          3.4170    2.0255    0.1493 C.ar      1 <0>         0.0000
      4 C4          1.1601    1.3329   -0.4467 C.ar      1 <0>         0.0000
      5 C5          2.4476    1.0285    0.0198 C.ar      1 <0>         0.0000
      6 C6          0.2589   -0.5580   -1.9262 C.3       1 <0>         0.0000
      7 C7         -0.9454    0.2669   -2.4454 C.3       1 <0>         0.0000
      8 C8          0.1097    0.2532   -0.5973 C.3       1 <0>         0.0000
      9 N1          3.1887    3.3060   -0.1649 N.ar      1 <0>         0.0000
     10 N2         -1.2447    0.6512   -1.0408 N.3       1 <0>         0.0000
     11 Cl1         2.8799   -0.6225    0.4398 Cl        1 <0>         0.0000
     12 H1         -0.0210    3.0024   -1.1556 H         1 <0>         0.0000
     13 H2          1.7983    4.6565   -0.8789 H         1 <0>         0.0000
     14 H3          4.4090    1.7731    0.5185 H         1 <0>         0.0000
     15 H4          0.0303   -1.6159   -1.7879 H         1 <0>         0.0000
     16 H5          1.2059   -0.4501   -2.4564 H         1 <0>         0.0000
     17 H6         -0.6317    1.1003   -3.0895 H         1 <0>         0.0000
     18 H7         -1.7541   -0.2817   -2.9384 H         1 <0>         0.0000
     19 H8          0.0958   -0.3504    0.3158 H         1 <0>         0.0000
     20 H9         -1.5214    1.6160   -0.8751 H         1 <0>         0.0000
@<TRIPOS>BOND
     1    1    2 ar
     2    1    4 ar
     3    1   12 1
     4    2    9 ar
     5    2   13 1
     6    3    5 ar
     7    3    9 ar
     8    3   14 1
     9    4    5 ar
    10    4    8 1
    11    5   11 1
    12    6    7 1
    13    6    8 1
    14    6   15 1
    15    6   16 1
    16    7   10 1
    17    7   17 1
    18    7   18 1
    19    8   10 1
    20    8   19 1
    21   10   20 1
