@<TRIPOS>MOLECULE
*****
   21    21     0     0     0
SMALL
NO_CHARGES

@<TRIPOS>ATOM
      1 C1          1.4593    0.4635    1.4826 C.2       1 <0>         0.0000
      2 C2          0.1929    0.0815    0.9536 C.2       1 <0>         0.0000
      3 C3          1.3797    0.3160    2.8553 C.2       1 <0>         0.0000
      4 C4         -0.6214   -0.2830    2.0151 C.2       1 <0>         0.0000
      5 C5         -0.3397   -0.3356    4.5483 C.3       1 <0>         0.0000
      6 C6         -3.0544    0.2016    2.5926 C.3       1 <0>         0.0000
      7 C7         -2.0429   -0.7584    1.9541 C.3       1 <0>         0.0000
      8 N1          0.1209   -0.1428    3.1791 N.pl3     1 <0>         0.0000
      9 N2         -2.2014   -2.0662    2.6320 N.3       1 <0>         0.0000
     10 F1         -3.0877    1.4058    1.8817 F         1 <0>         0.0000
     11 H1          2.3277    0.7968    0.9293 H         1 <0>         0.0000
     12 H2         -0.1049    0.0735   -0.0876 H         1 <0>         0.0000
     13 H3          2.1155    0.4911    3.6294 H         1 <0>         0.0000
     14 H4         -0.7603    0.5900    4.9589 H         1 <0>         0.0000
     15 H5         -1.0944   -1.1222    4.5730 H         1 <0>         0.0000
     16 H6          0.5074   -0.6366    5.1698 H         1 <0>         0.0000
     17 H7         -4.0626   -0.2277    2.5545 H         1 <0>         0.0000
     18 H8         -2.8025    0.4292    3.6306 H         1 <0>         0.0000
     19 H9         -2.2914   -0.8027    0.8834 H         1 <0>         0.0000
     20 H10        -1.4843   -2.7008    2.2848 H         1 <0>         0.0000
     21 H11        -3.1021   -2.4776    2.3883 H         1 <0>         0.0000
@<TRIPOS>BOND
     1    1    2 1
     2    1    3 2
     3    1   11 1
     4    2    4 2
     5    2   12 1
     6    3    8 1
     7    3   13 1
     8    4    7 1
     9    4    8 1
    10    5    8 1
    11    5   14 1
    12    5   15 1
    13    5   16 1
    14    6    7 1
    15    6   10 1
    16    6   17 1
    17    6   18 1
    18    7    9 1
    19    7   19 1
    20    9   20 1
    21    9   21 1
