@<TRIPOS>MOLECULE
*****
   21    21     0     0     0
SMALL
NO_CHARGES

@<TRIPOS>ATOM
      1 C1          0.7463   -1.7966    1.1763 C.ar      1 <0>         0.0000
      2 C2         -0.7707   -0.2481    2.2145 C.ar      1 <0>         0.0000
      3 C3          0.1575   -1.8946    3.5157 C.ar      1 <0>         0.0000
      4 C4         -0.1143   -0.6976    1.0606 C.ar      1 <0>         0.0000
      5 C5          0.8693   -2.4014    2.4212 C.ar      1 <0>         0.0000
      6 C6         -0.2462   -0.0491   -0.2915 C.2       1 <0>         0.0000
      7 C7         -2.2975    0.2994   -2.7853 C.3       1 <0>         0.0000
      8 C8         -1.6658    1.2883   -1.8011 C.3       1 <0>         0.0000
      9 N1         -0.6426   -0.8281    3.4151 N.ar      1 <0>         0.0000
     10 N2         -1.3768    0.6930   -0.4956 N.am      1 <0>         0.0000
     11 O1          0.6296   -0.1820   -1.1475 O.2       1 <0>         0.0000
     12 Br1         2.0046   -3.9229    2.6579 Br        1 <0>         0.0000
     13 H1          1.2909   -2.1432    0.3041 H         1 <0>         0.0000
     14 H2         -1.4053    0.6360    2.1890 H         1 <0>         0.0000
     15 H3          0.2433   -2.3590    4.4955 H         1 <0>         0.0000
     16 H4         -1.6225   -0.5418   -2.9631 H         1 <0>         0.0000
     17 H5         -3.2476   -0.0894   -2.4025 H         1 <0>         0.0000
     18 H6         -2.4942    0.7920   -3.7437 H         1 <0>         0.0000
     19 H7         -2.3236    2.1471   -1.6343 H         1 <0>         0.0000
     20 H8         -0.7207    1.6632   -2.1982 H         1 <0>         0.0000
     21 H9         -2.1499    0.5699    0.1446 H         1 <0>         0.0000
@<TRIPOS>BOND
     1    1    4 ar
     2    1    5 ar
     3    1   13 1
     4    2    4 ar
     5    2    9 ar
     6    2   14 1
     7    3    5 ar
     8    3    9 ar
     9    3   15 1
    10    4    6 1
    11    5   12 1
    12    6   10 am
    13    6   11 2
    14    7    8 1
    15    7   16 1
    16    7   17 1
    17    7   18 1
    18    8   10 1
    19    8   19 1
    20    8   20 1
    21   10   21 1
