@<TRIPOS>MOLECULE
*****
   32    34     0     0     0
SMALL
NO_CHARGES

@<TRIPOS>ATOM
      1 C1          5.6101   -4.4536    4.2474 C.1       1 <0>         0.0000
      2 C2          2.0572   -1.2198    0.1128 C.ar      1 <0>         0.0000
      3 C3          1.1626   -0.1662    0.3436 C.ar      1 <0>         0.0000
      4 C4          6.6799   -3.4770    2.2568 C.ar      1 <0>         0.0000
      5 C5          5.0524   -2.1711    3.5150 C.ar      1 <0>         0.0000
      6 C6          6.8423   -2.4117    1.3755 C.ar      1 <0>         0.0000
      7 C7          5.2038   -1.1217    2.6135 C.ar      1 <0>         0.0000
      8 C8          3.4236   -0.9617    0.0319 C.ar      1 <0>         0.0000
      9 C9          1.6374    1.1371    0.4764 C.ar      1 <0>         0.0000
     10 C10         5.7805   -3.3598    3.3313 C.ar      1 <0>         0.0000
     11 C11         6.0911   -1.2394    1.5337 C.ar      1 <0>         0.0000
     12 C12         3.9196    0.3365    0.2215 C.ar      1 <0>         0.0000
     13 C13         3.0113    1.3972    0.4111 C.ar      1 <0>         0.0000
     14 C14         6.3647   -0.0972    0.5960 C.2       1 <0>         0.0000
     15 C15         5.5591    1.9945   -0.3976 C.3       1 <0>         0.0000
     16 C16         4.8069    2.9866    0.4775 C.3       1 <0>         0.0000
     17 N1          5.4697   -5.3416    4.9890 N.1       1 <0>         0.0000
     18 N2          5.3013    0.6564    0.1374 N.am      1 <0>         0.0000
     19 O1          7.5256    0.1765    0.2893 O.2       1 <0>         0.0000
     20 O2          3.3972    2.7090    0.5099 O.3       1 <0>         0.0000
     21 H1          1.6923   -2.2340   -0.0190 H         1 <0>         0.0000
     22 H2          0.0948   -0.3572    0.4028 H         1 <0>         0.0000
     23 H3          7.2479   -4.3931    2.1282 H         1 <0>         0.0000
     24 H4          4.3711   -2.0813    4.3553 H         1 <0>         0.0000
     25 H5          7.5556   -2.4744    0.5597 H         1 <0>         0.0000
     26 H6          4.6292   -0.2121    2.7522 H         1 <0>         0.0000
     27 H7          4.1178   -1.7696   -0.1726 H         1 <0>         0.0000
     28 H8          0.9634    1.9744    0.6316 H         1 <0>         0.0000
     29 H9          5.2162    2.0510   -1.4363 H         1 <0>         0.0000
     30 H10         6.6318    2.1821   -0.3676 H         1 <0>         0.0000
     31 H11         5.2012    2.9518    1.5004 H         1 <0>         0.0000
     32 H12         4.9001    4.0061    0.0958 H         1 <0>         0.0000
@<TRIPOS>BOND
     1    1   10 1
     2    1   17 3
     3    2    3 ar
     4    2    8 ar
     5    2   21 1
     6    3    9 ar
     7    3   22 1
     8    4    6 ar
     9    4   10 ar
    10    4   23 1
    11    5    7 ar
    12    5   10 ar
    13    5   24 1
    14    6   11 ar
    15    6   25 1
    16    7   11 ar
    17    7   26 1
    18    8   12 ar
    19    8   27 1
    20    9   13 ar
    21    9   28 1
    22   11   14 1
    23   12   13 ar
    24   12   18 1
    25   13   20 1
    26   14   18 am
    27   14   19 2
    28   15   16 1
    29   15   18 1
    30   15   29 1
    31   15   30 1
    32   16   20 1
    33   16   31 1
    34   16   32 1
