@<TRIPOS>MOLECULE
*****
   34    36     0     0     0
SMALL
NO_CHARGES

@<TRIPOS>ATOM
      1 C1          0.8056   -3.9052  -13.1852 C.1       1 <0>         0.0000
      2 C2         -1.8831    1.4501   -2.8852 C.ar      1 <0>         0.0000
      3 C3         -2.0004    2.5653   -3.7325 C.ar      1 <0>         0.0000
      4 C4         -1.5715    0.1890   -3.3947 C.ar      1 <0>         0.0000
      5 C5         -1.8070    2.4370   -5.1115 C.ar      1 <0>         0.0000
      6 C6          0.8170   -4.1081  -10.6544 C.2       1 <0>         0.0000
      7 C7          0.2477   -3.8161  -11.8860 C.2       1 <0>         0.0000
      8 C8         -0.1579   -3.8218   -9.6594 C.2       1 <0>         0.0000
      9 C9         -1.3737    0.0387   -4.7745 C.ar      1 <0>         0.0000
     10 C10        -1.4954    1.1741   -5.6155 C.ar      1 <0>         0.0000
     11 C11        -1.3137   -3.3788  -10.3231 C.2       1 <0>         0.0000
     12 C12        -0.9403   -0.9703   -6.6868 C.2       1 <0>         0.0000
     13 C13         0.0048   -4.0173   -8.2091 C.2       1 <0>         0.0000
     14 C14        -2.6643   -3.0441   -9.7730 C.3       1 <0>         0.0000
     15 C15        -2.0159   -3.0365  -12.7118 C.3       1 <0>         0.0000
     16 N1          1.2500   -3.9745  -14.2631 N.1       1 <0>         0.0000
     17 N2         -1.0647   -1.1569   -5.4139 N.2       1 <0>         0.0000
     18 N3         -0.2532   -3.1766   -7.2638 N.2       1 <0>         0.0000
     19 N4         -1.0527   -3.3680  -11.6688 N.pl3     1 <0>         0.0000
     20 N5         -0.6798   -1.9335   -7.6346 N.pl3     1 <0>         0.0000
     21 S1         -1.1928    0.6988   -7.2843 S.3       1 <0>         0.0000
     22 H1         -2.0370    1.5724   -1.8165 H         1 <0>         0.0000
     23 H2         -2.2429    3.5388   -3.3156 H         1 <0>         0.0000
     24 H3         -1.4782   -0.6787   -2.7484 H         1 <0>         0.0000
     25 H4         -1.8964    3.2996   -5.7657 H         1 <0>         0.0000
     26 H5          1.8270   -4.4623  -10.4967 H         1 <0>         0.0000
     27 H6          0.4043   -4.9684   -7.8616 H         1 <0>         0.0000
     28 H7         -2.8905   -1.9733   -9.8494 H         1 <0>         0.0000
     29 H8         -3.4544   -3.5866  -10.3031 H         1 <0>         0.0000
     30 H9         -2.7139   -3.3170   -8.7184 H         1 <0>         0.0000
     31 H10        -2.7592   -3.8324  -12.8221 H         1 <0>         0.0000
     32 H11        -2.5251   -2.1014  -12.4683 H         1 <0>         0.0000
     33 H12        -1.4896   -2.9139  -13.6584 H         1 <0>         0.0000
     34 H13        -0.5266   -1.6316   -8.5955 H         1 <0>         0.0000
@<TRIPOS>BOND
     1    1    7 1
     2    1   16 3
     3    2    3 ar
     4    2    4 ar
     5    2   22 1
     6    3    5 ar
     7    3   23 1
     8    4    9 ar
     9    4   24 1
    10    5   10 ar
    11    5   25 1
    12    6    7 2
    13    6    8 1
    14    6   26 1
    15    7   19 1
    16    8   11 2
    17    8   13 1
    18    9   10 ar
    19    9   17 1
    20   10   21 1
    21   11   14 1
    22   11   19 1
    23   12   17 2
    24   12   20 1
    25   12   21 1
    26   13   18 2
    27   13   27 1
    28   14   28 1
    29   14   29 1
    30   14   30 1
    31   15   19 1
    32   15   31 1
    33   15   32 1
    34   15   33 1
    35   18   20 1
    36   20   34 1
