@<TRIPOS>MOLECULE
*****
   23    24     0     0     0
SMALL
NO_CHARGES

@<TRIPOS>ATOM
      1 C1          2.9037    1.6277    9.0768 C.1       1 <0>         0.0000
      2 C2          1.8571   -1.1004   -0.1696 C.ar      1 <0>         0.0000
      3 C3          1.3436   -2.1696    0.5714 C.ar      1 <0>         0.0000
      4 C4          2.3670    0.0322    0.4865 C.ar      1 <0>         0.0000
      5 C5          1.3390   -2.1083    1.9657 C.ar      1 <0>         0.0000
      6 C6          2.3662    0.1014    1.8758 C.ar      1 <0>         0.0000
      7 C7          2.5187    0.7452    8.0473 C.2       1 <0>         0.0000
      8 C8          1.8486   -0.9760    2.6240 C.ar      1 <0>         0.0000
      9 C9          1.9276   -0.5274    8.0747 C.2       1 <0>         0.0000
     10 C10         2.1920   -0.0634    6.0022 C.2       1 <0>         0.0000
     11 N1          3.2271    2.3677    9.9212 N.1       1 <0>         0.0000
     12 N2          1.7326   -1.0111    6.8319 N.2       1 <0>         0.0000
     13 N3          1.7907   -1.0290    4.0316 N.2       1 <0>         0.0000
     14 N4          2.2525   -0.0034    4.6212 N.2       1 <0>         0.0000
     15 N5          2.6727    1.0081    6.6925 N.pl3     1 <0>         0.0000
     16 O1          1.5882   -1.2020    9.1863 O.3       1 <0>         0.0000
     17 H1          1.8624   -1.1444   -1.2555 H         1 <0>         0.0000
     18 H2          0.9491   -3.0458    0.0646 H         1 <0>         0.0000
     19 H3          2.7644    0.8593   -0.0959 H         1 <0>         0.0000
     20 H4          0.9472   -2.9220    2.5691 H         1 <0>         0.0000
     21 H5          2.7568    0.9700    2.3950 H         1 <0>         0.0000
     22 H6          3.0695    1.8416    6.2746 H         1 <0>         0.0000
     23 H7          1.2024   -2.0484    8.8975 H         1 <0>         0.0000
@<TRIPOS>BOND
     1    1    7 1
     2    1   11 3
     3    2    4 ar
     4    2    3 ar
     5    2   17 1
     6    3    5 ar
     7    3   18 1
     8    4    6 ar
     9    4   19 1
    10    5    8 ar
    11    5   20 1
    12    6    8 ar
    13    6   21 1
    14    7    9 2
    15    7   15 1
    16    8   13 1
    17    9   12 1
    18    9   16 1
    19   10   12 2
    20   10   14 1
    21   10   15 1
    22   13   14 2
    23   15   22 1
    24   16   23 1
