@<TRIPOS>MOLECULE
*****
   27    28     0     0     0
SMALL
NO_CHARGES

@<TRIPOS>ATOM
      1 C1         -0.2393   -3.4747   -1.3146 C.1       1 <0>         0.0000
      2 C2          0.4089   -2.8179   -0.5273 C.1       1 <0>         0.0000
      3 C3          1.6053    0.0670    1.5149 C.ar      1 <0>         0.0000
      4 C4          0.8563   -0.6822    0.6077 C.ar      1 <0>         0.0000
      5 C5          2.6581   -0.5187    2.2158 C.ar      1 <0>         0.0000
      6 C6          5.8616   -3.2315    4.9128 C.ar      1 <0>         0.0000
      7 C7          2.2326   -2.6370    1.1044 C.ar      1 <0>         0.0000
      8 C8          6.7380   -4.7948    3.3093 C.ar      1 <0>         0.0000
      9 C9          6.9490   -3.5423    5.7294 C.ar      1 <0>         0.0000
     10 C10         1.1708   -2.0376    0.4021 C.ar      1 <0>         0.0000
     11 C11         5.7573   -3.8679    3.6667 C.ar      1 <0>         0.0000
     12 C12         2.9760   -1.8733    2.0134 C.ar      1 <0>         0.0000
     13 C13         7.7878   -5.0086    4.2075 C.ar      1 <0>         0.0000
     14 C14         4.6240   -3.6450    2.6957 C.2       1 <0>         0.0000
     15 N1          7.9097   -4.4119    5.3837 N.ar      1 <0>         0.0000
     16 N2          4.0487   -2.3985    2.7696 N.am      1 <0>         0.0000
     17 O1          4.2813   -4.5255    1.9126 O.2       1 <0>         0.0000
     18 Cl1         9.0484   -6.1488    3.7668 Cl        1 <0>         0.0000
     19 H1         -0.8072   -4.0581   -2.0081 H         1 <0>         0.0000
     20 H2          1.3700    1.1147    1.6794 H         1 <0>         0.0000
     21 H3          0.0353   -0.2327    0.0583 H         1 <0>         0.0000
     22 H4          3.2361    0.0752    2.9214 H         1 <0>         0.0000
     23 H5          5.1041   -2.5431    5.2763 H         1 <0>         0.0000
     24 H6          2.4756   -3.6769    0.9394 H         1 <0>         0.0000
     25 H7          6.6735   -5.3257    2.3666 H         1 <0>         0.0000
     26 H8          7.0565   -3.0794    6.7082 H         1 <0>         0.0000
     27 H9          4.5060   -1.7306    3.3765 H         1 <0>         0.0000
@<TRIPOS>BOND
     1    1    2 3
     2    1   19 1
     3    2   10 1
     4    3    4 ar
     5    3    5 ar
     6    3   20 1
     7    4   10 ar
     8    4   21 1
     9    5   12 ar
    10    5   22 1
    11    6    9 ar
    12    6   11 ar
    13    6   23 1
    14    7   10 ar
    15    7   12 ar
    16    7   24 1
    17    8   11 ar
    18    8   13 ar
    19    8   25 1
    20    9   15 ar
    21    9   26 1
    22   11   14 1
    23   12   16 1
    24   13   15 ar
    25   13   18 1
    26   14   16 am
    27   14   17 2
    28   16   27 1
