@<TRIPOS>MOLECULE
*****
   34    36     0     0     0
SMALL
NO_CHARGES

@<TRIPOS>ATOM
      1 C1         -1.2207   -2.9054  -12.8668 C.1       1 <0>         0.0000
      2 C2         -2.0432    1.7841   -2.9952 C.ar      1 <0>         0.0000
      3 C3         -2.0945    2.8725   -3.8832 C.ar      1 <0>         0.0000
      4 C4         -1.7790    0.4933   -3.4543 C.ar      1 <0>         0.0000
      5 C5         -1.8810    2.6871   -5.2526 C.ar      1 <0>         0.0000
      6 C6         -1.0455   -3.1018  -10.3435 C.2       1 <0>         0.0000
      7 C7         -0.6679   -3.3755  -11.6503 C.2       1 <0>         0.0000
      8 C8         -0.1777   -3.8442   -9.4861 C.2       1 <0>         0.0000
      9 C9         -1.5619    0.2857   -4.8239 C.ar      1 <0>         0.0000
     10 C10        -1.6166    1.3945   -5.7064 C.ar      1 <0>         0.0000
     11 C11         0.7078   -4.5524  -10.3148 C.2       1 <0>         0.0000
     12 C12        -1.1342   -0.8077   -6.6900 C.2       1 <0>         0.0000
     13 C13        -0.1964   -3.9429   -8.0245 C.2       1 <0>         0.0000
     14 C14         1.8287   -5.4748   -9.9585 C.3       1 <0>         0.0000
     15 C15         1.1133   -4.7771  -12.7831 C.3       1 <0>         0.0000
     16 N1         -1.6623   -2.5256  -13.8791 N.1       1 <0>         0.0000
     17 N2         -1.2893   -0.9432   -5.4143 N.2       1 <0>         0.0000
     18 N3         -0.5327   -3.0559   -7.1488 N.2       1 <0>         0.0000
     19 N4          0.4061   -4.2600  -11.6177 N.pl3     1 <0>         0.0000
     20 N5         -0.8969   -1.8181   -7.6005 N.pl3     1 <0>         0.0000
     21 S1         -1.3084    0.8467   -7.3509 S.3       1 <0>         0.0000
     22 H1         -2.2123    1.9510   -1.9348 H         1 <0>         0.0000
     23 H2         -2.3021    3.8698   -3.5055 H         1 <0>         0.0000
     24 H3         -1.7377   -0.3544   -2.7769 H         1 <0>         0.0000
     25 H4         -1.9210    3.5286   -5.9383 H         1 <0>         0.0000
     26 H5         -1.8958   -2.4962  -10.0617 H         1 <0>         0.0000
     27 H6          0.1118   -4.8884   -7.5826 H         1 <0>         0.0000
     28 H7          1.6744   -6.4787  -10.3707 H         1 <0>         0.0000
     29 H8          2.7895   -5.1067  -10.3367 H         1 <0>         0.0000
     30 H9          1.9162   -5.5645   -8.8751 H         1 <0>         0.0000
     31 H10         2.1642   -4.4752  -12.7588 H         1 <0>         0.0000
     32 H11         1.0540   -5.8685  -12.8118 H         1 <0>         0.0000
     33 H12         0.6535   -4.3766  -13.6862 H         1 <0>         0.0000
     34 H13        -0.6087   -1.5347   -8.5357 H         1 <0>         0.0000
@<TRIPOS>BOND
     1    1    7 1
     2    1   16 3
     3    2    3 ar
     4    2    4 ar
     5    2   22 1
     6    3    5 ar
     7    3   23 1
     8    4    9 ar
     9    4   24 1
    10    5   10 ar
    11    5   25 1
    12    6    7 2
    13    6    8 1
    14    6   26 1
    15    7   19 1
    16    8   11 2
    17    8   13 1
    18    9   10 ar
    19    9   17 1
    20   10   21 1
    21   11   14 1
    22   11   19 1
    23   12   17 2
    24   12   20 1
    25   12   21 1
    26   13   18 2
    27   13   27 1
    28   14   28 1
    29   14   29 1
    30   14   30 1
    31   15   19 1
    32   15   31 1
    33   15   32 1
    34   15   33 1
    35   18   20 1
    36   20   34 1
