@<TRIPOS>MOLECULE
*****
   34    36     0     0     0
SMALL
NO_CHARGES

@<TRIPOS>ATOM
      1 C1         -0.6921   -2.0036  -12.5000 C.1       1 <0>         0.0000
      2 C2         -5.2332    0.3111   -8.6403 C.ar      1 <0>         0.0000
      3 C3         -4.6403    1.5616   -8.3962 C.ar      1 <0>         0.0000
      4 C4         -4.5161   -0.8717   -8.4557 C.ar      1 <0>         0.0000
      5 C5         -3.3143    1.6508   -7.9614 C.ar      1 <0>         0.0000
      6 C6         -0.4541   -2.7940  -10.1049 C.2       1 <0>         0.0000
      7 C7         -0.8777   -2.8975  -11.4171 C.2       1 <0>         0.0000
      8 C8         -0.8928   -3.9688   -9.4246 C.2       1 <0>         0.0000
      9 C9         -3.1854   -0.8033   -8.0217 C.ar      1 <0>         0.0000
     10 C10        -2.6006    0.4655   -7.7818 C.ar      1 <0>         0.0000
     11 C11        -1.5818   -4.7560  -10.3630 C.2       1 <0>         0.0000
     12 C12        -1.1897   -1.5141   -7.3903 C.2       1 <0>         0.0000
     13 C13        -0.6556   -4.3805   -8.0508 C.2       1 <0>         0.0000
     14 C14        -2.2819   -6.0670  -10.2043 C.3       1 <0>         0.0000
     15 C15        -2.2155   -4.5637  -12.7849 C.3       1 <0>         0.0000
     16 N1         -0.5495   -1.2818  -13.4073 N.1       1 <0>         0.0000
     17 N2         -2.3601   -1.8976   -7.7885 N.2       1 <0>         0.0000
     18 N3         -0.2622   -3.7299   -7.0069 N.2       1 <0>         0.0000
     19 N4         -1.5741   -4.0996  -11.5621 N.pl3     1 <0>         0.0000
     20 N5         -0.1007   -2.3350   -7.1359 N.pl3     1 <0>         0.0000
     21 S1         -0.9302    0.2527   -7.2672 S.3       1 <0>         0.0000
     22 H1         -6.2654    0.2655   -8.9773 H         1 <0>         0.0000
     23 H2         -5.2147    2.4713   -8.5473 H         1 <0>         0.0000
     24 H3         -4.9658   -1.8434   -8.6379 H         1 <0>         0.0000
     25 H4         -2.8569    2.6182   -7.7746 H         1 <0>         0.0000
     26 H5          0.1181   -1.9744   -9.6989 H         1 <0>         0.0000
     27 H6         -0.7811   -5.4424   -7.8413 H         1 <0>         0.0000
     28 H7         -3.3592   -5.9676  -10.3822 H         1 <0>         0.0000
     29 H8         -1.8992   -6.8186  -10.9042 H         1 <0>         0.0000
     30 H9         -2.1541   -6.4534   -9.1928 H         1 <0>         0.0000
     31 H10        -1.7950   -5.5230  -13.1000 H         1 <0>         0.0000
     32 H11        -3.2931   -4.6768  -12.6345 H         1 <0>         0.0000
     33 H12        -2.0475   -3.8320  -13.5748 H         1 <0>         0.0000
     34 H13         0.4690   -2.0025   -6.3647 H         1 <0>         0.0000
@<TRIPOS>BOND
     1    1    7 1
     2    1   16 3
     3    2    3 ar
     4    2    4 ar
     5    2   22 1
     6    3    5 ar
     7    3   23 1
     8    4    9 ar
     9    4   24 1
    10    5   10 ar
    11    5   25 1
    12    6    7 2
    13    6    8 1
    14    6   26 1
    15    7   19 1
    16    8   11 2
    17    8   13 1
    18    9   10 ar
    19    9   17 1
    20   10   21 1
    21   11   14 1
    22   11   19 1
    23   12   17 2
    24   12   20 1
    25   12   21 1
    26   13   18 2
    27   13   27 1
    28   14   28 1
    29   14   29 1
    30   14   30 1
    31   15   19 1
    32   15   31 1
    33   15   32 1
    34   15   33 1
    35   18   20 1
    36   20   34 1
