@<TRIPOS>MOLECULE
*****
   27    28     0     0     0
SMALL
NO_CHARGES

@<TRIPOS>ATOM
      1 C1         -3.3163    3.3809    1.4834 C.1       1 <0>         0.0000
      2 C2          1.9632   -2.5295    1.3700 C.ar      1 <0>         0.0000
      3 C3          0.7834   -1.8790    1.7302 C.ar      1 <0>         0.0000
      4 C4          3.1176   -1.7981    1.0727 C.ar      1 <0>         0.0000
      5 C5          1.8960    0.2644    1.5024 C.ar      1 <0>         0.0000
      6 C6         -2.3630    3.6388    0.4629 C.2       1 <0>         0.0000
      7 C7          0.7308   -0.4744    1.7834 C.ar      1 <0>         0.0000
      8 C8          3.0689   -0.4051    1.1532 C.ar      1 <0>         0.0000
      9 C9         -1.1776    2.9956    0.1924 C.2       1 <0>         0.0000
     10 C10        -1.4823    4.6154   -1.2427 C.2       1 <0>         0.0000
     11 C11        -0.5406    0.1700    2.1761 C.2       1 <0>         0.0000
     12 C12        -1.1083    5.4506   -2.4132 C.3       1 <0>         0.0000
     13 N1         -4.1179    3.1957    2.3100 N.1       1 <0>         0.0000
     14 N2         -2.5195    4.6726   -0.4800 N.2       1 <0>         0.0000
     15 N3         -1.0810    1.2547    1.7391 N.2       1 <0>         0.0000
     16 N4         -0.4571    1.9752    0.7614 N.pl3     1 <0>         0.0000
     17 O1         -0.5984    3.5946   -0.8828 O.3       1 <0>         0.0000
     18 Cl1         4.5153    0.5291    0.8172 Cl        1 <0>         0.0000
     19 H1          1.9920   -3.6145    1.3217 H         1 <0>         0.0000
     20 H2         -0.1070   -2.4564    1.9642 H         1 <0>         0.0000
     21 H3          4.0400   -2.2973    0.7940 H         1 <0>         0.0000
     22 H4          1.9098    1.3441    1.6079 H         1 <0>         0.0000
     23 H5         -1.1435   -0.3432    2.9233 H         1 <0>         0.0000
     24 H6         -0.1513    5.9553   -2.2459 H         1 <0>         0.0000
     25 H7         -1.0138    4.8399   -3.3171 H         1 <0>         0.0000
     26 H8         -1.8856    6.1995   -2.5678 H         1 <0>         0.0000
     27 H9          0.2589    1.5442    0.1756 H         1 <0>         0.0000
@<TRIPOS>BOND
     1    1    6 1
     2    1   13 3
     3    2    3 ar
     4    2    4 ar
     5    2   19 1
     6    3    7 ar
     7    3   20 1
     8    4    8 ar
     9    4   21 1
    10    5    7 ar
    11    5    8 ar
    12    5   22 1
    13    6    9 2
    14    6   14 1
    15    7   11 1
    16    8   18 1
    17    9   16 1
    18    9   17 1
    19   10   12 1
    20   10   14 2
    21   10   17 1
    22   11   15 2
    23   11   23 1
    24   12   24 1
    25   12   25 1
    26   12   26 1
    27   15   16 1
    28   16   27 1
