@<TRIPOS>MOLECULE
*****
   36    38     0     0     0
SMALL
NO_CHARGES

@<TRIPOS>ATOM
      1 C1         -0.1242   -1.4487    7.8542 C.1       1 <0>         0.0000
      2 C2          0.7595   -4.9622    6.9677 C.ar      1 <0>         0.0000
      3 C3          0.2188   -3.8766    7.6579 C.ar      1 <0>         0.0000
      4 C4          1.5262   -4.7655    5.8178 C.ar      1 <0>         0.0000
      5 C5          8.4601   -6.2950    6.2741 C.ar      1 <0>         0.0000
      6 C6          7.1702   -7.9577    5.0568 C.ar      1 <0>         0.0000
      7 C7          9.5155   -7.1981    6.3977 C.ar      1 <0>         0.0000
      8 C8          8.2287   -8.8617    5.1640 C.ar      1 <0>         0.0000
      9 C9          1.1831   -2.3735    5.9943 C.ar      1 <0>         0.0000
     10 C10         0.4342   -2.5783    7.1616 C.ar      1 <0>         0.0000
     11 C11         4.5692   -4.3960    4.8416 C.2       1 <0>         0.0000
     12 C12         1.7621   -3.4653    5.3331 C.ar      1 <0>         0.0000
     13 C13         7.2952   -6.6746    5.5983 C.ar      1 <0>         0.0000
     14 C14         9.3824   -8.4637    5.8324 C.ar      1 <0>         0.0000
     15 C15         4.8812   -4.2058    6.2296 C.2       1 <0>         0.0000
     16 C16         5.4811   -5.3656    4.4290 C.2       1 <0>         0.0000
     17 C17         3.6463   -3.7057    3.9327 C.2       1 <0>         0.0000
     18 C18         4.3049   -3.2343    7.2123 C.3       1 <0>         0.0000
     19 N1         -0.5732   -0.5346    8.4208 N.1       1 <0>         0.0000
     20 N2          5.8756   -5.0048    6.6079 N.2       1 <0>         0.0000
     21 N3          2.4722   -3.2338    4.1442 N.2       1 <0>         0.0000
     22 N4          6.2266   -5.7375    5.5039 N.pl3     1 <0>         0.0000
     23 F1         10.4088   -9.3412    5.9440 F         1 <0>         0.0000
     24 Cl1         5.7215   -5.9925    2.8415 Cl        1 <0>         0.0000
     25 H1          0.5875   -5.9714    7.3316 H         1 <0>         0.0000
     26 H2         -0.3698   -4.0219    8.5579 H         1 <0>         0.0000
     27 H3          1.9429   -5.6148    5.2852 H         1 <0>         0.0000
     28 H4          8.5256   -5.3016    6.7039 H         1 <0>         0.0000
     29 H5          6.2516   -8.2585    4.5655 H         1 <0>         0.0000
     30 H6         10.4307   -6.9317    6.9168 H         1 <0>         0.0000
     31 H7          8.1602   -9.8635    4.7526 H         1 <0>         0.0000
     32 H8          1.3346   -1.3722    5.6044 H         1 <0>         0.0000
     33 H9          4.0292   -3.5665    2.9181 H         1 <0>         0.0000
     34 H10         3.3489   -3.5859    7.6091 H         1 <0>         0.0000
     35 H11         5.0003   -3.1110    8.0454 H         1 <0>         0.0000
     36 H12         4.1307   -2.2611    6.7468 H         1 <0>         0.0000
@<TRIPOS>BOND
     1    1   10 1
     2    1   19 3
     3    2    3 ar
     4    2    4 ar
     5    2   25 1
     6    3   10 ar
     7    3   26 1
     8    4   12 ar
     9    4   27 1
    10    5    7 ar
    11    5   13 ar
    12    5   28 1
    13    6    8 ar
    14    6   13 ar
    15    6   29 1
    16    7   14 ar
    17    7   30 1
    18    8   14 ar
    19    8   31 1
    20    9   10 ar
    21    9   12 ar
    22    9   32 1
    23   11   15 1
    24   11   16 2
    25   11   17 1
    26   12   21 1
    27   13   22 1
    28   14   23 1
    29   15   18 1
    30   15   20 2
    31   16   22 1
    32   16   24 1
    33   17   21 2
    34   17   33 1
    35   18   34 1
    36   18   35 1
    37   18   36 1
    38   20   22 1
