@<TRIPOS>MOLECULE
*****
   44    46     0     0     0
SMALL
NO_CHARGES

@<TRIPOS>ATOM
      1 C1         -3.5601   -0.3509   -4.4022 C.ar      1 <0>         0.0000
      2 C2         -4.2180    0.8624   -4.6153 C.ar      1 <0>         0.0000
      3 C3         -2.2705   -0.3261   -3.8690 C.ar      1 <0>         0.0000
      4 C4         -3.5459    2.0432   -4.2851 C.ar      1 <0>         0.0000
      5 C5         -1.6754    0.9074   -3.5659 C.ar      1 <0>         0.0000
      6 C6         -0.6131    2.3297    0.6024 C.3       1 <0>         0.0000
      7 C7         -1.0939    1.0614    1.3200 C.3       1 <0>         0.0000
      8 C8         -1.0146   -1.5086    1.3006 C.3       1 <0>         0.0000
      9 C9         -0.8912    2.2470   -0.9003 C.3       1 <0>         0.0000
     10 C10         0.0358   -2.5603    0.9188 C.3       1 <0>         0.0000
     11 C11        -0.8189   -0.1695   -0.8331 C.3       1 <0>         0.0000
     12 C12         1.0209   -0.3112    0.8987 C.3       1 <0>         0.0000
     13 C13        -0.4997   -0.1970    0.6759 C.3       1 <0>         0.0000
     14 C14         2.3282   -2.1143   -1.6603 C.3       1 <0>         0.0000
     15 C15        -0.2972    0.9856   -2.9302 C.3       1 <0>         0.0000
     16 N1         -2.3082    2.0768   -3.7743 N.ar      1 <0>         0.0000
     17 N2         -0.2845    1.0336   -1.4628 N.3       1 <0>         0.0000
     18 N3          1.2846   -1.7681    0.8886 N.pl3     1 <0>         0.0000
     19 O1          2.6399   -3.8073    0.3469 O.2       1 <0>         0.0000
     20 O2          3.7521   -1.4993    0.4695 O.2       1 <0>         0.0000
     21 S1          2.6233   -2.3608    0.1126 S.o2      1 <0>         0.0000
     22 H1         -4.0393   -1.2950   -4.6494 H         1 <0>         0.0000
     23 H2         -5.2210    0.8991   -5.0308 H         1 <0>         0.0000
     24 H3         -1.7239   -1.2493   -3.6947 H         1 <0>         0.0000
     25 H4         -4.0234    3.0095   -4.4428 H         1 <0>         0.0000
     26 H5         -1.1156    3.2118    1.0146 H         1 <0>         0.0000
     27 H6          0.4623    2.4655    0.7639 H         1 <0>         0.0000
     28 H7         -0.8349    1.0956    2.3848 H         1 <0>         0.0000
     29 H8         -2.1893    1.0038    1.2605 H         1 <0>         0.0000
     30 H9         -2.0152   -1.7802    0.9505 H         1 <0>         0.0000
     31 H10        -1.0568   -1.4024    2.3900 H         1 <0>         0.0000
     32 H11        -1.9810    2.2712   -1.0737 H         1 <0>         0.0000
     33 H12        -0.4705    3.1134   -1.4187 H         1 <0>         0.0000
     34 H13         0.1210   -3.3722    1.6428 H         1 <0>         0.0000
     35 H14        -0.1858   -3.0077   -0.0590 H         1 <0>         0.0000
     36 H15        -0.3779   -1.0400   -1.3302 H         1 <0>         0.0000
     37 H16        -1.9147   -0.2544   -0.9557 H         1 <0>         0.0000
     38 H17         1.5851    0.2112    0.1243 H         1 <0>         0.0000
     39 H18         1.3165    0.1036    1.8683 H         1 <0>         0.0000
     40 H19         3.2137   -2.4816   -2.1825 H         1 <0>         0.0000
     41 H20         1.4516   -2.6919   -1.9582 H         1 <0>         0.0000
     42 H21         2.1909   -1.0492   -1.8518 H         1 <0>         0.0000
     43 H22         0.2981    0.1186   -3.2394 H         1 <0>         0.0000
     44 H23         0.2016    1.8863   -3.2989 H         1 <0>         0.0000
@<TRIPOS>BOND
     1    1    2 ar
     2    1    3 ar
     3    1   22 1
     4    2    4 ar
     5    2   23 1
     6    3    5 ar
     7    3   24 1
     8    4   16 ar
     9    4   25 1
    10    5   15 1
    11    5   16 ar
    12    6    7 1
    13    6    9 1
    14    6   26 1
    15    6   27 1
    16    7   13 1
    17    7   28 1
    18    7   29 1
    19    8   10 1
    20    8   13 1
    21    8   30 1
    22    8   31 1
    23    9   17 1
    24    9   32 1
    25    9   33 1
    26   10   18 1
    27   10   34 1
    28   10   35 1
    29   11   13 1
    30   11   17 1
    31   11   36 1
    32   11   37 1
    33   12   13 1
    34   12   18 1
    35   12   38 1
    36   12   39 1
    37   14   21 1
    38   14   40 1
    39   14   41 1
    40   14   42 1
    41   15   17 1
    42   15   43 1
    43   15   44 1
    44   18   21 1
    45   19   21 2
    46   20   21 2
