@<TRIPOS>MOLECULE
*****
   23    24     0     0     0
SMALL
NO_CHARGES

@<TRIPOS>ATOM
      1 C1         -4.2953    4.3661    3.1255 C.2       1 <0>         0.0000
      2 C2         -3.1248    3.8429    3.7770 C.2       1 <0>         0.0000
      3 C3         -4.6625    5.5821    3.6207 C.2       1 <0>         0.0000
      4 C4         -2.6514    4.6897    4.7534 C.2       1 <0>         0.0000
      5 C5         -2.5062    2.5303    3.4613 C.2       1 <0>         0.0000
      6 C6         -0.6851    1.2147    0.7579 C.3       1 <0>         0.0000
      7 C7         -1.8567    0.8981    1.6974 C.3       1 <0>         0.0000
      8 C8         -1.1953    2.2872   -0.1996 C.3       1 <0>         0.0000
      9 N1         -2.4405    2.1911    2.0969 N.am      1 <0>         0.0000
     10 O1         -2.1192    1.7505    4.3195 O.2       1 <0>         0.0000
     11 O2         -3.5277    3.6037    0.1596 O.2       1 <0>         0.0000
     12 O3         -1.4725    4.5114    1.3426 O.2       1 <0>         0.0000
     13 S1         -3.5962    6.1439    4.8852 S.3       1 <0>         0.0000
     14 S2         -2.2432    3.3811    0.8238 S.o2      1 <0>         0.0000
     15 Cl1        -6.0144    6.5416    3.1337 Cl        1 <0>         0.0000
     16 Cl2        -1.2541    4.4975    5.7408 Cl        1 <0>         0.0000
     17 H1         -4.8276    3.8585    2.3306 H         1 <0>         0.0000
     18 H2          0.1617    1.5939    1.3367 H         1 <0>         0.0000
     19 H3         -0.3610    0.3254    0.2112 H         1 <0>         0.0000
     20 H4         -2.6204    0.2998    1.1883 H         1 <0>         0.0000
     21 H5         -1.5409    0.3802    2.6017 H         1 <0>         0.0000
     22 H6         -0.4242    2.9233   -0.6365 H         1 <0>         0.0000
     23 H7         -1.8483    1.8873   -0.9779 H         1 <0>         0.0000
@<TRIPOS>BOND
     1    1    2 1
     2    1    3 2
     3    1   17 1
     4    2    4 2
     5    2    5 1
     6    3   13 1
     7    3   15 1
     8    4   13 1
     9    4   16 1
    10    5    9 am
    11    5   10 2
    12    6    7 1
    13    6    8 1
    14    6   18 1
    15    6   19 1
    16    7    9 1
    17    7   20 1
    18    7   21 1
    19    8   14 1
    20    8   22 1
    21    8   23 1
    22    9   14 1
    23   11   14 2
    24   12   14 2
