@<TRIPOS>MOLECULE
*****
   23    24     0     0     0
SMALL
NO_CHARGES

@<TRIPOS>ATOM
      1 C1         -0.3958    1.6909   -4.7790 C.2       1 <0>         0.0000
      2 C2         -1.5197    1.7716   -3.8879 C.2       1 <0>         0.0000
      3 C3         -0.6445    0.8978   -5.8623 C.2       1 <0>         0.0000
      4 C4         -2.5859    1.0292   -4.3318 C.2       1 <0>         0.0000
      5 C5         -1.5444    2.6148   -2.6488 C.2       1 <0>         0.0000
      6 C6          0.8193    1.0183   -0.2649 C.3       1 <0>         0.0000
      7 C7          0.3573    1.1759   -1.7239 C.3       1 <0>         0.0000
      8 C8          1.0603    2.4287    0.2627 C.3       1 <0>         0.0000
      9 N1         -0.5057    2.3697   -1.7586 N.am      1 <0>         0.0000
     10 O1         -2.3897    3.4685   -2.4443 O.2       1 <0>         0.0000
     11 O2         -0.0664    4.7238   -0.6632 O.2       1 <0>         0.0000
     12 O3         -1.5224    3.0446    0.5831 O.2       1 <0>         0.0000
     13 S1         -2.2496    0.2097   -5.8353 S.3       1 <0>         0.0000
     14 S2         -0.4019    3.3513   -0.3026 S.o2      1 <0>         0.0000
     15 Cl1         0.4257    0.5674   -7.1790 Cl        1 <0>         0.0000
     16 Cl2        -4.1137    0.8192   -3.5655 Cl        1 <0>         0.0000
     17 H1          0.5332    2.2307   -4.6341 H         1 <0>         0.0000
     18 H2          0.0412    0.5309    0.3282 H         1 <0>         0.0000
     19 H3          1.7264    0.4121   -0.2117 H         1 <0>         0.0000
     20 H4          1.2211    1.3169   -2.3826 H         1 <0>         0.0000
     21 H5         -0.1992    0.3011   -2.0652 H         1 <0>         0.0000
     22 H6          1.0844    2.5092    1.3500 H         1 <0>         0.0000
     23 H7          1.9361    2.9099   -0.1789 H         1 <0>         0.0000
@<TRIPOS>BOND
     1    1    2 1
     2    1    3 2
     3    1   17 1
     4    2    4 2
     5    2    5 1
     6    3   13 1
     7    3   15 1
     8    4   13 1
     9    4   16 1
    10    5    9 am
    11    5   10 2
    12    6    7 1
    13    6    8 1
    14    6   18 1
    15    6   19 1
    16    7    9 1
    17    7   20 1
    18    7   21 1
    19    8   14 1
    20    8   22 1
    21    8   23 1
    22    9   14 1
    23   11   14 2
    24   12   14 2
