@<TRIPOS>MOLECULE
*****
   55    58     0     0     0
SMALL
NO_CHARGES

@<TRIPOS>ATOM
      1 C1          2.3742    2.5188    1.2365 C.ar      1 <0>         0.0000
      2 C2          1.7535    2.0140    0.0670 C.ar      1 <0>         0.0000
      3 C3          2.2863    1.8771    2.4756 C.ar      1 <0>         0.0000
      4 C4          0.9626    0.1723    1.3369 C.ar      1 <0>         0.0000
      5 C5          1.0286    0.8228    0.1014 C.ar      1 <0>         0.0000
      6 C6          0.3051   -1.0535    1.6402 C.2       1 <0>         0.0000
      7 C7          1.5564    0.6806    2.5144 C.ar      1 <0>         0.0000
      8 C8          0.4869   -1.2831    2.9858 C.2       1 <0>         0.0000
      9 C9         -0.3287   -1.8190    0.5187 C.3       1 <0>         0.0000
     10 C10        -0.4114    1.2688   -1.9381 C.3       1 <0>         0.0000
     11 C11        -1.6416   -0.6854   -2.8930 C.3       1 <0>         0.0000
     12 C12         0.2666    0.1880   -1.0519 C.3       1 <0>         0.0000
     13 C13        -1.7480    0.7908   -2.5361 C.3       1 <0>         0.0000
     14 C14        -0.8184   -0.8305   -0.5661 C.3       1 <0>         0.0000
     15 C15        -3.2707   -3.7933   -2.5329 C.3       1 <0>         0.0000
     16 C16        -1.8959   -1.1613    4.6855 C.3       1 <0>         0.0000
     17 C17        -4.8357    1.9656   -3.0941 C.3       1 <0>         0.0000
     18 C18        -0.0306   -2.3864    3.8575 C.3       1 <0>         0.0000
     19 C19        -2.1250    1.6587   -3.7414 C.3       1 <0>         0.0000
     20 C20        -1.8469   -3.5927   -3.0618 C.3       1 <0>         0.0000
     21 C21        -0.9376   -2.8382   -2.0796 C.3       1 <0>         0.0000
     22 N1          1.2416   -0.2212    3.5175 N.pl3     1 <0>         0.0000
     23 N2         -1.4715   -1.5285   -1.7007 N.3       1 <0>         0.0000
     24 O1         -1.4453   -2.3547    4.0599 O.3       1 <0>         0.0000
     25 S1         -3.7851    1.3643   -4.4608 S.3       1 <0>         0.0000
     26 H1          2.9337    3.4485    1.1693 H         1 <0>         0.0000
     27 H2          1.8462    2.5787   -0.8572 H         1 <0>         0.0000
     28 H3          2.7625    2.2988    3.3572 H         1 <0>         0.0000
     29 H4          0.4235   -2.4960    0.0982 H         1 <0>         0.0000
     30 H5         -1.1700   -2.4316    0.8567 H         1 <0>         0.0000
     31 H6         -0.5854    2.1731   -1.3461 H         1 <0>         0.0000
     32 H7          0.2687    1.5532   -2.7505 H         1 <0>         0.0000
     33 H8         -2.5376   -1.0001   -3.4353 H         1 <0>         0.0000
     34 H9         -0.7885   -0.8058   -3.5922 H         1 <0>         0.0000
     35 H10         0.9794   -0.3762   -1.6696 H         1 <0>         0.0000
     36 H11        -2.5306    0.9011   -1.7775 H         1 <0>         0.0000
     37 H12        -1.5947   -0.2308   -0.0723 H         1 <0>         0.0000
     38 H13        -3.2623   -4.3428   -1.5842 H         1 <0>         0.0000
     39 H14        -3.7608   -2.8332   -2.3493 H         1 <0>         0.0000
     40 H15        -3.8788   -4.3605   -3.2459 H         1 <0>         0.0000
     41 H16        -2.9725   -1.2702    4.8336 H         1 <0>         0.0000
     42 H17        -1.7035   -0.2785    4.0615 H         1 <0>         0.0000
     43 H18        -1.4127   -1.0169    5.6652 H         1 <0>         0.0000
     44 H19        -5.8640    1.9741   -3.4635 H         1 <0>         0.0000
     45 H20        -4.5565    2.9847   -2.8096 H         1 <0>         0.0000
     46 H21        -4.7834    1.3110   -2.2206 H         1 <0>         0.0000
     47 H22         0.1623   -3.3584    3.3961 H         1 <0>         0.0000
     48 H23         0.4872   -2.3686    4.8312 H         1 <0>         0.0000
     49 H24        -1.4267    1.4815   -4.5673 H         1 <0>         0.0000
     50 H25        -2.0491    2.7202   -3.4784 H         1 <0>         0.0000
     51 H26        -1.8768   -3.0827   -4.0306 H         1 <0>         0.0000
     52 H27        -1.3791   -4.5672   -3.2504 H         1 <0>         0.0000
     53 H28        -0.8506   -3.4593   -1.1869 H         1 <0>         0.0000
     54 H29         0.0755   -2.7598   -2.5239 H         1 <0>         0.0000
     55 H30         1.5204   -0.1493    4.4857 H         1 <0>         0.0000
@<TRIPOS>BOND
     1    1    2 ar
     2    1    3 ar
     3    1   26 1
     4    2    5 ar
     5    2   27 1
     6    3    7 ar
     7    3   28 1
     8    4    5 ar
     9    4    6 1
    10    4    7 ar
    11    5   12 1
    12    6    8 2
    13    6    9 1
    14    7   22 1
    15    8   18 1
    16    8   22 1
    17    9   14 1
    18    9   29 1
    19    9   30 1
    20   10   12 1
    21   10   13 1
    22   10   31 1
    23   10   32 1
    24   11   13 1
    25   11   23 1
    26   11   33 1
    27   11   34 1
    28   12   14 1
    29   12   35 1
    30   13   19 1
    31   13   36 1
    32   14   23 1
    33   14   37 1
    34   15   20 1
    35   15   38 1
    36   15   39 1
    37   15   40 1
    38   16   24 1
    39   16   41 1
    40   16   42 1
    41   16   43 1
    42   17   25 1
    43   17   44 1
    44   17   45 1
    45   17   46 1
    46   18   24 1
    47   18   47 1
    48   18   48 1
    49   19   25 1
    50   19   49 1
    51   19   50 1
    52   20   21 1
    53   20   51 1
    54   20   52 1
    55   21   23 1
    56   21   53 1
    57   21   54 1
    58   22   55 1
