@<TRIPOS>MOLECULE
*****
   45    47     0     0     0
SMALL
NO_CHARGES

@<TRIPOS>ATOM
      1 C1          0.7558    3.5517   -0.6976 C.ar      1 <0>         0.0000
      2 C2          2.8612    2.3545   -0.7612 C.ar      1 <0>         0.0000
      3 C3          1.3046    4.4590    0.2142 C.ar      1 <0>         0.0000
      4 C4          3.4162    3.2608    0.1426 C.ar      1 <0>         0.0000
      5 C5         -3.1612   -0.7167   -4.4091 C.2       1 <0>         0.0000
      6 C6         -2.0093   -2.0514   -3.2630 C.2       1 <0>         0.0000
      7 C7          1.5280    2.4838   -1.1704 C.ar      1 <0>         0.0000
      8 C8          2.6200    4.2938    0.6278 C.ar      1 <0>         0.0000
      9 C9         -0.8133    1.3805    1.0035 C.2       1 <0>         0.0000
     10 C10         1.3141   -0.0747    0.8764 C.3       1 <0>         0.0000
     11 C11         0.1907   -0.9562    1.3123 C.3       1 <0>         0.0000
     12 C12        -0.0908    0.2297    0.3769 C.3       1 <0>         0.0000
     13 C13         0.1335    3.4164    3.8628 C.3       1 <0>         0.0000
     14 C14        -1.8906   -0.6457   -1.1548 C.3       1 <0>         0.0000
     15 C15        -0.8452    2.9335    2.8092 C.3       1 <0>         0.0000
     16 C16        -0.3071    1.1315   -2.0196 C.3       1 <0>         0.0000
     17 C17        -0.4559   -0.0872   -1.0915 C.3       1 <0>         0.0000
     18 N1         -2.5358   -1.9299   -4.4753 N.2       1 <0>         0.0000
     19 N2         -3.0561   -0.0926   -3.2405 N.2       1 <0>         0.0000
     20 N3         -2.3145   -0.9724   -2.5046 N.pl3     1 <0>         0.0000
     21 O1         -1.8170    1.9026    0.5397 O.2       1 <0>         0.0000
     22 O2          0.3932   -1.1330   -1.5770 O.3       1 <0>         0.0000
     23 O3          1.0703    1.5452   -2.0746 O.3       1 <0>         0.0000
     24 O4         -0.2407    1.7874    2.1542 O.3       1 <0>         0.0000
     25 F1          3.1442    5.1666    1.5317 F         1 <0>         0.0000
     26 H1         -0.2702    3.6873   -1.0170 H         1 <0>         0.0000
     27 H2          3.4517    1.5303   -1.1497 H         1 <0>         0.0000
     28 H3          0.7190    5.2896    0.5961 H         1 <0>         0.0000
     29 H4          4.4448    3.1663    0.4767 H         1 <0>         0.0000
     30 H5         -3.7112   -0.2841   -5.2350 H         1 <0>         0.0000
     31 H6         -1.4084   -2.8727   -2.8972 H         1 <0>         0.0000
     32 H7          1.7367    0.6263    1.5841 H         1 <0>         0.0000
     33 H8          2.0060   -0.4805    0.1493 H         1 <0>         0.0000
     34 H9          0.1207   -1.9387    0.8572 H         1 <0>         0.0000
     35 H10        -0.1716   -0.8748    2.3313 H         1 <0>         0.0000
     36 H11         0.3405    2.6327    4.5976 H         1 <0>         0.0000
     37 H12         1.0773    3.7219    3.4022 H         1 <0>         0.0000
     38 H13        -0.2889    4.2784    4.3892 H         1 <0>         0.0000
     39 H14        -1.9291   -1.5539   -0.5488 H         1 <0>         0.0000
     40 H15        -2.5932    0.0818   -0.7528 H         1 <0>         0.0000
     41 H16        -1.0466    3.6971    2.0553 H         1 <0>         0.0000
     42 H17        -1.8016    2.6213    3.2397 H         1 <0>         0.0000
     43 H18        -0.5580    0.8353   -3.0383 H         1 <0>         0.0000
     44 H19        -0.9757    1.9353   -1.7206 H         1 <0>         0.0000
     45 H20         1.1765   -0.7048   -1.9634 H         1 <0>         0.0000
@<TRIPOS>BOND
     1    1    3 ar
     2    1    7 ar
     3    1   26 1
     4    2    4 ar
     5    2    7 ar
     6    2   27 1
     7    3    8 ar
     8    3   28 1
     9    4    8 ar
    10    4   29 1
    11    5   18 1
    12    5   19 2
    13    5   30 1
    14    6   18 2
    15    6   20 1
    16    6   31 1
    17    7   23 1
    18    8   25 1
    19    9   12 1
    20    9   21 2
    21    9   24 1
    22   10   11 1
    23   10   12 1
    24   10   32 1
    25   10   33 1
    26   11   12 1
    27   11   34 1
    28   11   35 1
    29   12   17 1
    30   13   15 1
    31   13   36 1
    32   13   37 1
    33   13   38 1
    34   14   17 1
    35   14   20 1
    36   14   39 1
    37   14   40 1
    38   15   24 1
    39   15   41 1
    40   15   42 1
    41   16   17 1
    42   16   23 1
    43   16   43 1
    44   16   44 1
    45   17   22 1
    46   19   20 1
    47   22   45 1
