@<TRIPOS>MOLECULE
*****
   49    52     0     0     0
SMALL
NO_CHARGES

@<TRIPOS>ATOM
      1 C1          3.3568   -5.6724    2.3522 C.ar      1 <0>         0.0000
      2 C2          4.1085   -5.5041    3.5168 C.ar      1 <0>         0.0000
      3 C3          3.5973   -4.8716    1.2333 C.ar      1 <0>         0.0000
      4 C4          7.1905    0.3531    1.5079 C.ar      1 <0>         0.0000
      5 C5          5.3597   -3.7490    2.4296 C.ar      1 <0>         0.0000
      6 C6          5.7932    2.1478    3.1732 C.ar      1 <0>         0.0000
      7 C7          6.5671   -3.1207    5.2085 C.2       1 <0>         0.0000
      8 C8          6.2030   -5.2252    5.8029 C.2       1 <0>         0.0000
      9 C9          5.7912    0.2008    1.6871 C.ar      1 <0>         0.0000
     10 C10         5.1234   -4.5341    3.5707 C.ar      1 <0>         0.0000
     11 C11         5.9157   -4.3171    4.7888 C.2       1 <0>         0.0000
     12 C12         4.6063   -3.9007    1.2652 C.ar      1 <0>         0.0000
     13 C13         5.0819    1.1067    2.5186 C.ar      1 <0>         0.0000
     14 C14         7.8653    1.3681    2.1477 C.ar      1 <0>         0.0000
     15 C15         7.1539    2.2732    2.9940 C.ar      1 <0>         0.0000
     16 C16         4.9941   -0.8433    1.1001 C.ar      1 <0>         0.0000
     17 C17         3.1102    0.0270    2.0985 C.ar      1 <0>         0.0000
     18 C18         1.6224   -0.1099    2.2826 C.3       1 <0>         0.0000
     19 C19         5.7066   -3.8431   -1.0092 C.3       1 <0>         0.0000
     20 C20         7.3470    4.1737    4.4415 C.3       1 <0>         0.0000
     21 C21         4.8796   -3.0615    0.0196 C.3       1 <0>         0.0000
     22 N1          7.1976   -3.2710    6.3745 N.2       1 <0>         0.0000
     23 N2          3.7299    1.0145    2.7200 N.ar      1 <0>         0.0000
     24 N3          3.6858   -0.9146    1.3024 N.ar      1 <0>         0.0000
     25 N4          6.9638   -4.5601    6.7147 N.pl3     1 <0>         0.0000
     26 N5          5.5709   -1.8054    0.3082 N.pl3     1 <0>         0.0000
     27 O1          9.2134    1.5211    1.9774 O.3       1 <0>         0.0000
     28 O2          7.9588    3.2259    3.5639 O.3       1 <0>         0.0000
     29 H1          2.5640   -6.4160    2.3251 H         1 <0>         0.0000
     30 H2          3.8847   -6.1030    4.3959 H         1 <0>         0.0000
     31 H3          2.9883   -4.9903    0.3392 H         1 <0>         0.0000
     32 H4          7.7697   -0.2998    0.8614 H         1 <0>         0.0000
     33 H5          6.1465   -3.0015    2.4658 H         1 <0>         0.0000
     34 H6          5.2242    2.8197    3.8049 H         1 <0>         0.0000
     35 H7          6.5763   -2.1550    4.7177 H         1 <0>         0.0000
     36 H8          5.9478   -6.2692    5.9242 H         1 <0>         0.0000
     37 H9          1.1162   -0.0528    1.3130 H         1 <0>         0.0000
     38 H10         1.3881   -1.0911    2.7086 H         1 <0>         0.0000
     39 H11         1.2448    0.6751    2.9391 H         1 <0>         0.0000
     40 H12         6.6901   -4.1042   -0.6001 H         1 <0>         0.0000
     41 H13         5.2034   -4.7772   -1.2703 H         1 <0>         0.0000
     42 H14         5.8475   -3.2520   -1.9196 H         1 <0>         0.0000
     43 H15         8.1502    4.8253    4.7864 H         1 <0>         0.0000
     44 H16         6.8861    3.6688    5.2975 H         1 <0>         0.0000
     45 H17         6.5931    4.7649    3.9102 H         1 <0>         0.0000
     46 H18         3.9146   -2.7990   -0.4210 H         1 <0>         0.0000
     47 H19         7.3585   -4.9196    7.5730 H         1 <0>         0.0000
     48 H20         6.5792   -1.8662    0.3443 H         1 <0>         0.0000
     49 H21         9.4902    2.2838    2.5160 H         1 <0>         0.0000
@<TRIPOS>BOND
     1    1    2 ar
     2    1    3 ar
     3    1   29 1
     4    2   10 ar
     5    2   30 1
     6    3   12 ar
     7    3   31 1
     8    4    9 ar
     9    4   14 ar
    10    4   32 1
    11    5   10 ar
    12    5   12 ar
    13    5   33 1
    14    6   13 ar
    15    6   15 ar
    16    6   34 1
    17    7   11 1
    18    7   22 2
    19    7   35 1
    20    8   11 2
    21    8   25 1
    22    8   36 1
    23    9   13 ar
    24    9   16 ar
    25   10   11 1
    26   12   21 1
    27   13   23 ar
    28   14   15 ar
    29   14   27 1
    30   15   28 1
    31   16   24 ar
    32   16   26 1
    33   17   18 1
    34   17   23 ar
    35   17   24 ar
    36   18   37 1
    37   18   38 1
    38   18   39 1
    39   19   21 1
    40   19   40 1
    41   19   41 1
    42   19   42 1
    43   20   28 1
    44   20   43 1
    45   20   44 1
    46   20   45 1
    47   21   26 1
    48   21   46 1
    49   22   25 1
    50   25   47 1
    51   26   48 1
    52   27   49 1
