@<TRIPOS>MOLECULE
*****
   51    53     0     0     0
SMALL
NO_CHARGES

@<TRIPOS>ATOM
      1 C1          1.6197    3.1694    2.7907 C.ar      1 <0>         0.0000
      2 C2         -0.0107    4.2019    1.3415 C.ar      1 <0>         0.0000
      3 C3          1.3400    4.1058    3.7895 C.ar      1 <0>         0.0000
      4 C4         -0.3063    5.1475    2.3278 C.ar      1 <0>         0.0000
      5 C5          0.9549    3.2079    1.5570 C.ar      1 <0>         0.0000
      6 C6          1.2495    2.2004    0.4927 C.ar      1 <0>         0.0000
      7 C7          0.6109    0.9565    0.5224 C.ar      1 <0>         0.0000
      8 C8          2.1537    2.4970   -0.5512 C.ar      1 <0>         0.0000
      9 C9          0.3801    5.0809    3.5358 C.ar      1 <0>         0.0000
     10 C10         0.8973    0.0462   -0.5155 C.ar      1 <0>         0.0000
     11 C11         2.3677    1.5171   -1.5419 C.ar      1 <0>         0.0000
     12 C12        -0.8687   -1.4617    0.2250 C.2       1 <0>         0.0000
     13 C13         0.2179   -1.2671   -0.5472 C.2       1 <0>         0.0000
     14 C14        -0.3195    0.5191    1.6290 C.3       1 <0>         0.0000
     15 C15        -1.4546   -0.3950    1.1301 C.3       1 <0>         0.0000
     16 C16         0.7398   -2.3077   -1.5031 C.3       1 <0>         0.0000
     17 C17        -2.4871    0.4292    0.3271 C.3       1 <0>         0.0000
     18 C18        -2.1504   -1.0465    2.3366 C.3       1 <0>         0.0000
     19 C19         2.4380    1.7823   -4.0296 C.3       1 <0>         0.0000
     20 C20         4.3532    0.6368   -2.8162 C.3       1 <0>         0.0000
     21 C21         2.8609    3.8346   -0.6055 C.3       1 <0>         0.0000
     22 C22         3.2785    1.7341   -2.7407 C.3       1 <0>         0.0000
     23 N1          1.7530    0.3263   -1.5086 N.ar      1 <0>         0.0000
     24 O1          2.3684    4.6878   -1.6534 O.3       1 <0>         0.0000
     25 F1          0.1017    5.9949    4.5005 F         1 <0>         0.0000
     26 H1          2.3663    2.4005    2.9699 H         1 <0>         0.0000
     27 H2         -0.5513    4.2265    0.3986 H         1 <0>         0.0000
     28 H3          1.8511    4.0880    4.7472 H         1 <0>         0.0000
     29 H4         -1.0524    5.9207    2.1721 H         1 <0>         0.0000
     30 H5         -1.4087   -2.4062    0.1589 H         1 <0>         0.0000
     31 H6          0.2712   -0.0347    2.3736 H         1 <0>         0.0000
     32 H7         -0.7406    1.3842    2.1487 H         1 <0>         0.0000
     33 H8          1.7946   -2.5267   -1.3060 H         1 <0>         0.0000
     34 H9          0.6888   -1.9460   -2.5347 H         1 <0>         0.0000
     35 H10         0.1649   -3.2342   -1.4209 H         1 <0>         0.0000
     36 H11        -2.9587    1.1844    0.9676 H         1 <0>         0.0000
     37 H12        -3.2753   -0.2172   -0.0730 H         1 <0>         0.0000
     38 H13        -2.0115    0.9399   -0.5159 H         1 <0>         0.0000
     39 H14        -2.5598   -0.2840    3.0090 H         1 <0>         0.0000
     40 H15        -1.4511   -1.6651    2.9095 H         1 <0>         0.0000
     41 H16        -2.9791   -1.6862    2.0127 H         1 <0>         0.0000
     42 H17         1.8981    0.8407   -4.1683 H         1 <0>         0.0000
     43 H18         3.0833    1.9457   -4.8998 H         1 <0>         0.0000
     44 H19         1.7103    2.5989   -3.9882 H         1 <0>         0.0000
     45 H20         3.8882   -0.3473   -2.9212 H         1 <0>         0.0000
     46 H21         4.9726    0.6240   -1.9122 H         1 <0>         0.0000
     47 H22         5.0107    0.8058   -3.6761 H         1 <0>         0.0000
     48 H23         2.7875    4.3426    0.3610 H         1 <0>         0.0000
     49 H24         3.9229    3.7045   -0.8232 H         1 <0>         0.0000
     50 H25         3.7743    2.7014   -2.6427 H         1 <0>         0.0000
     51 H26         1.4216    4.8261   -1.4920 H         1 <0>         0.0000
@<TRIPOS>BOND
     1    1    3 ar
     2    1    5 ar
     3    1   26 1
     4    2    4 ar
     5    2    5 ar
     6    2   27 1
     7    3    9 ar
     8    3   28 1
     9    4    9 ar
    10    4   29 1
    11    5    6 1
    12    6    7 ar
    13    6    8 ar
    14    7   10 ar
    15    7   14 1
    16    8   11 ar
    17    8   21 1
    18    9   25 1
    19   10   13 1
    20   10   23 ar
    21   11   22 1
    22   11   23 ar
    23   12   13 2
    24   12   15 1
    25   12   30 1
    26   13   16 1
    27   14   15 1
    28   14   31 1
    29   14   32 1
    30   15   17 1
    31   15   18 1
    32   16   33 1
    33   16   34 1
    34   16   35 1
    35   17   36 1
    36   17   37 1
    37   17   38 1
    38   18   39 1
    39   18   40 1
    40   18   41 1
    41   19   22 1
    42   19   42 1
    43   19   43 1
    44   19   44 1
    45   20   22 1
    46   20   45 1
    47   20   46 1
    48   20   47 1
    49   21   24 1
    50   21   48 1
    51   21   49 1
    52   22   50 1
    53   24   51 1
