@<TRIPOS>MOLECULE
*****
   51    54     0     0     0
SMALL
NO_CHARGES

@<TRIPOS>ATOM
      1 C1         -8.3013   -3.4118    6.8700 C.ar      1 <0>         0.0000
      2 C2         -2.4381   -1.6736   -1.6141 C.ar      1 <0>         0.0000
      3 C3         -8.7806   -3.8103    5.6210 C.ar      1 <0>         0.0000
      4 C4         -7.2036   -2.5436    6.9152 C.ar      1 <0>         0.0000
      5 C5         -1.0514   -1.5007   -1.5219 C.ar      1 <0>         0.0000
      6 C6         -3.0542   -2.7132   -0.9158 C.ar      1 <0>         0.0000
      7 C7         -8.1752   -3.3687    4.4407 C.ar      1 <0>         0.0000
      8 C8         -6.6027   -2.0860    5.7447 C.ar      1 <0>         0.0000
      9 C9         -0.2837   -2.3727   -0.7462 C.ar      1 <0>         0.0000
     10 C10        -2.3035   -3.6049   -0.1322 C.ar      1 <0>         0.0000
     11 C11        -7.0695   -2.4920    4.4732 C.ar      1 <0>         0.0000
     12 C12        -0.9059   -3.4216   -0.0658 C.ar      1 <0>         0.0000
     13 C13        -2.0615   -5.6096    1.1985 C.2       1 <0>         0.0000
     14 C14        -2.8876   -4.6939    0.6636 C.2       1 <0>         0.0000
     15 C15        -7.0097   -2.3368    1.9982 C.3       1 <0>         0.0000
     16 C16        -5.0086   -1.9056    3.2330 C.3       1 <0>         0.0000
     17 C17        -6.4291   -3.6546    1.4732 C.3       1 <0>         0.0000
     18 C18        -4.4112   -3.2220    2.7291 C.3       1 <0>         0.0000
     19 C19        -0.5731   -5.5890    0.9384 C.3       1 <0>         0.0000
     20 C20        -0.2291   -6.4203   -0.3078 C.3       1 <0>         0.0000
     21 C21         0.2122   -6.0675    2.1588 C.3       1 <0>         0.0000
     22 C22        -4.3829   -4.7821    0.8623 C.3       1 <0>         0.0000
     23 N1         -6.4740   -1.9716    3.3076 N.pl3     1 <0>         0.0000
     24 N2         -4.9690   -3.5626    1.4177 N.3       1 <0>         0.0000
     25 O1         -0.1204   -4.2216    0.7200 O.3       1 <0>         0.0000
     26 H1         -8.7705   -3.7633    7.7845 H         1 <0>         0.0000
     27 H2         -3.0347   -0.9952   -2.2176 H         1 <0>         0.0000
     28 H3         -9.6302   -4.4861    5.5546 H         1 <0>         0.0000
     29 H4         -6.8182   -2.2034    7.8735 H         1 <0>         0.0000
     30 H5         -0.5649   -0.6890   -2.0566 H         1 <0>         0.0000
     31 H6         -4.1321   -2.8228   -0.9512 H         1 <0>         0.0000
     32 H7         -8.5683   -3.7272    3.4968 H         1 <0>         0.0000
     33 H8         -5.7822   -1.3800    5.8198 H         1 <0>         0.0000
     34 H9          0.7931   -2.2594   -0.6606 H         1 <0>         0.0000
     35 H10        -2.4498   -6.4229    1.8080 H         1 <0>         0.0000
     36 H11        -6.7311   -1.5395    1.2989 H         1 <0>         0.0000
     37 H12        -8.0998   -2.3693    2.0313 H         1 <0>         0.0000
     38 H13        -4.5862   -1.6599    4.2060 H         1 <0>         0.0000
     39 H14        -4.7365   -1.1021    2.5392 H         1 <0>         0.0000
     40 H15        -6.7576   -4.4947    2.1134 H         1 <0>         0.0000
     41 H16        -6.8071   -3.8434    0.4610 H         1 <0>         0.0000
     42 H17        -3.3271   -3.1143    2.6324 H         1 <0>         0.0000
     43 H18        -4.6039   -4.0207    3.4715 H         1 <0>         0.0000
     44 H19         0.8502   -6.3987   -0.4915 H         1 <0>         0.0000
     45 H20        -0.7447   -6.0219   -1.1863 H         1 <0>         0.0000
     46 H21        -0.5426   -7.4603   -0.1703 H         1 <0>         0.0000
     47 H22         1.2866   -5.9912    1.9688 H         1 <0>         0.0000
     48 H23        -0.0290   -7.1118    2.3798 H         1 <0>         0.0000
     49 H24        -0.0323   -5.4578    3.0330 H         1 <0>         0.0000
     50 H25        -4.6014   -5.6643    1.4923 H         1 <0>         0.0000
     51 H26        -4.8643   -4.9622   -0.1083 H         1 <0>         0.0000
@<TRIPOS>BOND
     1    1    4 ar
     2    1    3 ar
     3    1   26 1
     4    2    5 ar
     5    2    6 ar
     6    2   27 1
     7    3    7 ar
     8    3   28 1
     9    4    8 ar
    10    4   29 1
    11    5    9 ar
    12    5   30 1
    13    6   10 ar
    14    6   31 1
    15    7   11 ar
    16    7   32 1
    17    8   11 ar
    18    8   33 1
    19    9   12 ar
    20    9   34 1
    21   10   12 ar
    22   10   14 1
    23   11   23 1
    24   12   25 1
    25   13   14 2
    26   13   19 1
    27   13   35 1
    28   14   22 1
    29   15   17 1
    30   15   23 1
    31   15   36 1
    32   15   37 1
    33   16   18 1
    34   16   23 1
    35   16   38 1
    36   16   39 1
    37   17   24 1
    38   17   40 1
    39   17   41 1
    40   18   24 1
    41   18   42 1
    42   18   43 1
    43   19   20 1
    44   19   21 1
    45   19   25 1
    46   20   44 1
    47   20   45 1
    48   20   46 1
    49   21   47 1
    50   21   48 1
    51   21   49 1
    52   22   24 1
    53   22   50 1
    54   22   51 1
