@<TRIPOS>MOLECULE
*****
   53    55     0     0     0
SMALL
NO_CHARGES

@<TRIPOS>ATOM
      1 C1          4.9133   -4.0871   11.3775 C.ar      1 <0>         0.0000
      2 C2          5.8789   -4.3865   10.3795 C.ar      1 <0>         0.0000
      3 C3          3.8099   -3.3201   11.0681 C.ar      1 <0>         0.0000
      4 C4          2.5168   -2.0280    9.3632 C.ar      1 <0>         0.0000
      5 C5          2.5698    0.1059    1.8660 C.ar      1 <0>         0.0000
      6 C6          0.6062    1.1398    2.7894 C.ar      1 <0>         0.0000
      7 C7          5.7275   -3.9165    9.0915 C.ar      1 <0>         0.0000
      8 C8          2.8811   -0.4438    3.1145 C.ar      1 <0>         0.0000
      9 C9          0.8985    0.5986    4.0383 C.ar      1 <0>         0.0000
     10 C10         2.4136   -1.5845    8.0639 C.ar      1 <0>         0.0000
     11 C11         3.6272   -2.8220    9.7494 C.ar      1 <0>         0.0000
     12 C12         1.4342    0.9017    1.6827 C.ar      1 <0>         0.0000
     13 C13         4.6000   -3.1238    8.7433 C.ar      1 <0>         0.0000
     14 C14         2.0399   -0.1983    4.2079 C.ar      1 <0>         0.0000
     15 C15         3.4343   -1.9406    7.1414 C.ar      1 <0>         0.0000
     16 C16        -0.5542   -0.4220   -0.1546 C.2       1 <0>         0.0000
     17 C17        -1.8413   -0.2810   -0.5157 C.2       1 <0>         0.0000
     18 C18         2.2552    2.2288   -0.2466 C.2       1 <0>         0.0000
     19 C19        -2.9216   -1.1235    0.1215 C.3       1 <0>         0.0000
     20 C20        -2.3407    0.6969   -1.5523 C.3       1 <0>         0.0000
     21 C21         3.3063    4.3429   -0.3504 C.3       1 <0>         0.0000
     22 C22         3.3933   -1.4993    5.6944 C.3       1 <0>         0.0000
     23 C23         0.6316    0.3463   -0.6750 C.3       1 <0>         0.0000
     24 C24         1.0710    1.4567    0.3123 C.3       1 <0>         0.0000
     25 N1          4.4837   -2.6766    7.4593 N.ar      1 <0>         0.0000
     26 O1          3.1767    1.7435   -0.8776 O.2       1 <0>         0.0000
     27 O2          2.2457   -0.6871    5.4726 O.3       1 <0>         0.0000
     28 O3          2.1803    3.5433    0.0679 O.3       1 <0>         0.0000
     29 H1          5.0494   -4.4661   12.3869 H         1 <0>         0.0000
     30 H2          6.7437   -4.9921   10.6377 H         1 <0>         0.0000
     31 H3          3.0674   -3.0876   11.8284 H         1 <0>         0.0000
     32 H4          1.7554   -1.7762   10.0985 H         1 <0>         0.0000
     33 H5          3.2314   -0.0864    1.0256 H         1 <0>         0.0000
     34 H6         -0.2851    1.7507    2.6698 H         1 <0>         0.0000
     35 H7          6.4549   -4.1350    8.3152 H         1 <0>         0.0000
     36 H8          3.7726   -1.0520    3.2164 H         1 <0>         0.0000
     37 H9          0.2555    0.7807    4.8946 H         1 <0>         0.0000
     38 H10         1.5817   -0.9760    7.7301 H         1 <0>         0.0000
     39 H11        -0.3268   -1.1480    0.6253 H         1 <0>         0.0000
     40 H12        -3.6739   -0.4916    0.6118 H         1 <0>         0.0000
     41 H13        -2.5141   -1.8104    0.8684 H         1 <0>         0.0000
     42 H14        -3.4545   -1.7156   -0.6340 H         1 <0>         0.0000
     43 H15        -2.8496    0.1684   -2.3687 H         1 <0>         0.0000
     44 H16        -1.5485    1.3077   -1.9889 H         1 <0>         0.0000
     45 H17        -3.0823    1.3753   -1.1109 H         1 <0>         0.0000
     46 H18         3.0837    5.3561   -0.0162 H         1 <0>         0.0000
     47 H19         3.4159    4.3095   -1.4369 H         1 <0>         0.0000
     48 H20         4.2246    3.9764    0.1146 H         1 <0>         0.0000
     49 H21         4.3111   -0.9435    5.4646 H         1 <0>         0.0000
     50 H22         3.3669   -2.3883    5.0512 H         1 <0>         0.0000
     51 H23         1.4779   -0.3304   -0.8289 H         1 <0>         0.0000
     52 H24         0.4224    0.8031   -1.6460 H         1 <0>         0.0000
     53 H25         0.2459    2.1619    0.4397 H         1 <0>         0.0000
@<TRIPOS>BOND
     1    1    2 ar
     2    1    3 ar
     3    1   29 1
     4    2    7 ar
     5    2   30 1
     6    3   11 ar
     7    3   31 1
     8    4   10 ar
     9    4   11 ar
    10    4   32 1
    11    5    8 ar
    12    5   12 ar
    13    5   33 1
    14    6    9 ar
    15    6   12 ar
    16    6   34 1
    17    7   13 ar
    18    7   35 1
    19    8   14 ar
    20    8   36 1
    21    9   14 ar
    22    9   37 1
    23   10   15 ar
    24   10   38 1
    25   11   13 ar
    26   12   24 1
    27   13   25 ar
    28   14   27 1
    29   15   22 1
    30   15   25 ar
    31   16   17 2
    32   16   23 1
    33   16   39 1
    34   17   19 1
    35   17   20 1
    36   18   24 1
    37   18   26 2
    38   18   28 1
    39   19   40 1
    40   19   41 1
    41   19   42 1
    42   20   43 1
    43   20   44 1
    44   20   45 1
    45   21   28 1
    46   21   46 1
    47   21   47 1
    48   21   48 1
    49   22   27 1
    50   22   49 1
    51   22   50 1
    52   23   24 1
    53   23   51 1
    54   23   52 1
    55   24   53 1
