@<TRIPOS>MOLECULE
*****
   42    45     0     0     0
SMALL
NO_CHARGES

@<TRIPOS>ATOM
      1 C1          0.6354   -2.2362    2.8081 C.1       1 <0>         0.0000
      2 C2         -0.9429    1.7378   -1.9706 C.ar      1 <0>         0.0000
      3 C3          0.0444    0.7294   -1.8595 C.ar      1 <0>         0.0000
      4 C4         -1.3395    2.5283   -0.8865 C.ar      1 <0>         0.0000
      5 C5          0.3079    1.3064    0.4334 C.ar      1 <0>         0.0000
      6 C6          0.6791    0.4916   -0.6400 C.ar      1 <0>         0.0000
      7 C7          0.7847    1.2639    1.7778 C.2       1 <0>         0.0000
      8 C8         -0.6939    2.2963    0.3348 C.ar      1 <0>         0.0000
      9 C9          0.0752    2.2074    2.4864 C.2       1 <0>         0.0000
     10 C10        -0.9612   -2.3166   -1.8300 C.2       1 <0>         0.0000
     11 C11         1.8975    0.3146    2.1032 C.3       1 <0>         0.0000
     12 C12         1.4405   -1.9094   -1.0980 C.3       1 <0>         0.0000
     13 C13        -0.4270   -2.0230    0.6481 C.3       1 <0>         0.0000
     14 C14         1.7088   -0.5944   -0.3475 C.3       1 <0>         0.0000
     15 C15         0.0672   -2.5222   -0.7248 C.3       1 <0>         0.0000
     16 C16         1.8323   -0.9180    1.1705 C.3       1 <0>         0.0000
     17 C17         0.1408    2.6018    3.9260 C.3       1 <0>         0.0000
     18 C18        -3.2457   -1.9711   -2.3249 C.3       1 <0>         0.0000
     19 N1          0.5849   -2.5932    3.9240 N.1       1 <0>         0.0000
     20 N2         -0.8166    2.8395    1.6055 N.pl3     1 <0>         0.0000
     21 N3          0.7248   -1.8357    1.5449 N.3       1 <0>         0.0000
     22 O1         -0.7060   -2.3136   -3.0198 O.2       1 <0>         0.0000
     23 O2         -2.2134   -2.1884   -1.3400 O.3       1 <0>         0.0000
     24 H1         -1.4180    1.8953   -2.9354 H         1 <0>         0.0000
     25 H2          0.2802    0.1351   -2.7364 H         1 <0>         0.0000
     26 H3         -2.1156    3.2810   -1.0005 H         1 <0>         0.0000
     27 H4          2.8728    0.7953    1.9445 H         1 <0>         0.0000
     28 H5          1.8803   -0.0223    3.1445 H         1 <0>         0.0000
     29 H6          1.4901   -1.7659   -2.1787 H         1 <0>         0.0000
     30 H7          2.2337   -2.6174   -0.8383 H         1 <0>         0.0000
     31 H8         -0.9824   -1.0888    0.5471 H         1 <0>         0.0000
     32 H9         -1.0934   -2.7523    1.1081 H         1 <0>         0.0000
     33 H10         2.6957   -0.2265   -0.6555 H         1 <0>         0.0000
     34 H11         0.1919   -3.6104   -0.6667 H         1 <0>         0.0000
     35 H12         2.7636   -1.4828    1.2975 H         1 <0>         0.0000
     36 H13         0.5022    3.6300    4.0513 H         1 <0>         0.0000
     37 H14        -0.8415    2.5323    4.4087 H         1 <0>         0.0000
     38 H15         0.8215    1.9391    4.4646 H         1 <0>         0.0000
     39 H16        -4.1749   -1.8999   -1.7599 H         1 <0>         0.0000
     40 H17        -3.2824   -2.8043   -3.0300 H         1 <0>         0.0000
     41 H18        -3.0520   -1.0429   -2.8671 H         1 <0>         0.0000
     42 H19        -1.4756    3.5549    1.8782 H         1 <0>         0.0000
@<TRIPOS>BOND
     1    1   19 3
     2    1   21 1
     3    2    3 ar
     4    2    4 ar
     5    2   24 1
     6    3    6 ar
     7    3   25 1
     8    4    8 ar
     9    4   26 1
    10    5    6 ar
    11    5    7 1
    12    5    8 ar
    13    6   14 1
    14    7    9 2
    15    7   11 1
    16    8   20 1
    17    9   17 1
    18    9   20 1
    19   10   15 1
    20   10   22 2
    21   10   23 1
    22   11   16 1
    23   11   27 1
    24   11   28 1
    25   12   14 1
    26   12   15 1
    27   12   29 1
    28   12   30 1
    29   13   15 1
    30   13   21 1
    31   13   31 1
    32   13   32 1
    33   14   16 1
    34   14   33 1
    35   15   34 1
    36   16   21 1
    37   16   35 1
    38   17   36 1
    39   17   37 1
    40   17   38 1
    41   18   23 1
    42   18   39 1
    43   18   40 1
    44   18   41 1
    45   20   42 1
