@<TRIPOS>MOLECULE
*****
   50    53     0     0     0
SMALL
NO_CHARGES

@<TRIPOS>ATOM
      1 C1          2.0323   10.1037  -10.1671 C.ar      1 <0>         0.0000
      2 C2          1.1356   10.2552   -9.0762 C.ar      1 <0>         0.0000
      3 C3          2.6004    8.8746  -10.4321 C.ar      1 <0>         0.0000
      4 C4          2.8439    6.4577   -9.8351 C.ar      1 <0>         0.0000
      5 C5          1.9842   -0.1129   -6.2615 C.ar      1 <0>         0.0000
      6 C6          0.4410    1.0167   -4.8086 C.ar      1 <0>         0.0000
      7 C7          0.8224    9.1797   -8.2705 C.ar      1 <0>         0.0000
      8 C8          2.2131    1.0759   -6.9554 C.ar      1 <0>         0.0000
      9 C9          0.6587    2.2182   -5.4954 C.ar      1 <0>         0.0000
     10 C10         2.4955    5.4217   -9.0003 C.ar      1 <0>         0.0000
     11 C11         2.2959    7.7495   -9.6192 C.ar      1 <0>         0.0000
     12 C12         1.0980   -0.1659   -5.1748 C.ar      1 <0>         0.0000
     13 C13         1.3926    7.9008   -8.5194 C.ar      1 <0>         0.0000
     14 C14         1.5514    2.2466   -6.5721 C.ar      1 <0>         0.0000
     15 C15         1.5873    5.6758   -7.9334 C.ar      1 <0>         0.0000
     16 C16        -0.6539   -1.8411   -4.3346 C.2       1 <0>         0.0000
     17 C17         3.3090   -1.3777   -1.4109 C.3       1 <0>         0.0000
     18 C18         2.2116   -2.3663   -0.9058 C.3       1 <0>         0.0000
     19 C19         2.9470   -1.0668   -2.8810 C.3       1 <0>         0.0000
     20 C20         1.2519   -2.5756   -2.0993 C.3       1 <0>         0.0000
     21 C21         1.4329   -1.3213   -2.9684 C.3       1 <0>         0.0000
     22 C22         1.1609    4.5739   -6.9888 C.3       1 <0>         0.0000
     23 C23         0.8891   -1.4661   -4.4073 C.3       1 <0>         0.0000
     24 N1          1.0568    6.8637   -7.6988 N.ar      1 <0>         0.0000
     25 O1         -1.4005   -1.0686   -3.6903 O.co2     1 <0>         0.0000
     26 O2         -0.9314   -2.9245   -4.9321 O.co2     1 <0>         0.0000
     27 O3          1.5615   -2.5361   -5.0681 O.3       1 <0>         0.0000
     28 O4          1.8430    3.3819   -7.3207 O.3       1 <0>         0.0000
     29 H1          2.2683   10.9612  -10.7923 H         1 <0>         0.0000
     30 H2          0.6939   11.2287   -8.8776 H         1 <0>         0.0000
     31 H3          3.2880    8.7518  -11.2667 H         1 <0>         0.0000
     32 H4          3.5351    6.2991  -10.6607 H         1 <0>         0.0000
     33 H5          2.4873   -1.0280   -6.5548 H         1 <0>         0.0000
     34 H6         -0.2818    0.9758   -4.0000 H         1 <0>         0.0000
     35 H7          0.1388    9.2744   -7.4316 H         1 <0>         0.0000
     36 H8          2.8998    1.1128   -7.7981 H         1 <0>         0.0000
     37 H9          0.1193    3.1076   -5.1854 H         1 <0>         0.0000
     38 H10         2.8876    4.4198   -9.1261 H         1 <0>         0.0000
     39 H11         3.2930   -0.4585   -0.8130 H         1 <0>         0.0000
     40 H12         4.3183   -1.7955   -1.3169 H         1 <0>         0.0000
     41 H13         2.6405   -3.3124   -0.5554 H         1 <0>         0.0000
     42 H14         1.6748   -1.9311   -0.0547 H         1 <0>         0.0000
     43 H15         3.2253   -0.0518   -3.1822 H         1 <0>         0.0000
     44 H16         3.4523   -1.7643   -3.5585 H         1 <0>         0.0000
     45 H17         1.5525   -3.4483   -2.6884 H         1 <0>         0.0000
     46 H18         0.2114   -2.7184   -1.7963 H         1 <0>         0.0000
     47 H19         0.8934   -0.4907   -2.4989 H         1 <0>         0.0000
     48 H20         1.3803    4.8862   -5.9583 H         1 <0>         0.0000
     49 H21         0.0723    4.4426   -7.0663 H         1 <0>         0.0000
     50 H22         0.7803   -3.1103   -5.2937 H         1 <0>         0.0000
@<TRIPOS>BOND
     1    1    2 ar
     2    1    3 ar
     3    1   29 1
     4    2    7 ar
     5    2   30 1
     6    3   11 ar
     7    3   31 1
     8    4   10 ar
     9    4   11 ar
    10    4   32 1
    11    5    8 ar
    12    5   12 ar
    13    5   33 1
    14    6    9 ar
    15    6   12 ar
    16    6   34 1
    17    7   13 ar
    18    7   35 1
    19    8   14 ar
    20    8   36 1
    21    9   14 ar
    22    9   37 1
    23   10   15 ar
    24   10   38 1
    25   11   13 ar
    26   12   23 1
    27   13   24 ar
    28   14   28 1
    29   15   22 1
    30   15   24 ar
    31   16   23 1
    32   16   25 1
    33   16   26 2
    34   17   18 1
    35   17   19 1
    36   17   39 1
    37   17   40 1
    38   18   20 1
    39   18   41 1
    40   18   42 1
    41   19   21 1
    42   19   43 1
    43   19   44 1
    44   20   21 1
    45   20   45 1
    46   20   46 1
    47   21   23 1
    48   21   47 1
    49   22   28 1
    50   22   48 1
    51   22   49 1
    52   23   27 1
    53   27   50 1
