@<TRIPOS>MOLECULE
*****
   50    53     0     0     0
SMALL
NO_CHARGES

@<TRIPOS>ATOM
      1 C1          3.3610    8.3809  -12.2795 C.ar      1 <0>         0.0000
      2 C2          3.1157    7.1918  -13.0164 C.ar      1 <0>         0.0000
      3 C3          3.2531    8.3782  -10.9040 C.ar      1 <0>         0.0000
      4 C4          2.7682    7.1176   -8.7985 C.ar      1 <0>         0.0000
      5 C5          0.7449    0.1125   -6.0661 C.ar      1 <0>         0.0000
      6 C6          1.0784    1.4688   -4.1131 C.ar      1 <0>         0.0000
      7 C7          2.7677    6.0240  -12.3689 C.ar      1 <0>         0.0000
      8 C8          1.0854    1.1926   -6.8940 C.ar      1 <0>         0.0000
      9 C9          1.4148    2.5527   -4.9215 C.ar      1 <0>         0.0000
     10 C10         2.4185    5.9262   -8.2069 C.ar      1 <0>         0.0000
     11 C11         2.8964    7.1902  -10.2107 C.ar      1 <0>         0.0000
     12 C12         0.7405    0.2212   -4.6717 C.ar      1 <0>         0.0000
     13 C13         2.6486    5.9913  -10.9521 C.ar      1 <0>         0.0000
     14 C14         1.4256    2.4176   -6.3145 C.ar      1 <0>         0.0000
     15 C15         2.1924    4.7896   -9.0341 C.ar      1 <0>         0.0000
     16 C16        -0.5904   -0.6038   -2.6293 C.2       1 <0>         0.0000
     17 C17         3.8619   -1.7881   -2.2413 C.3       1 <0>         0.0000
     18 C18         3.8980   -2.6401   -3.5467 C.3       1 <0>         0.0000
     19 C19         2.6483   -0.8502   -2.3986 C.3       1 <0>         0.0000
     20 C20         2.5857   -2.3046   -4.3015 C.3       1 <0>         0.0000
     21 C21         1.6635   -1.6810   -3.2357 C.3       1 <0>         0.0000
     22 C22         1.7963    3.4555   -8.4412 C.3       1 <0>         0.0000
     23 C23         0.3979   -0.9939   -3.8121 C.3       1 <0>         0.0000
     24 N1          2.3024    4.8161  -10.3512 N.ar      1 <0>         0.0000
     25 O1         -0.1670    0.1837   -1.7497 O.co2     1 <0>         0.0000
     26 O2         -1.7200   -1.1729   -2.7159 O.co2     1 <0>         0.0000
     27 O3         -0.2727   -1.9700   -4.6151 O.3       1 <0>         0.0000
     28 O4          1.7771    3.5549   -7.0321 O.3       1 <0>         0.0000
     29 H1          3.6340    9.2927  -12.8048 H         1 <0>         0.0000
     30 H2          3.2037    7.2060  -14.1000 H         1 <0>         0.0000
     31 H3          3.4396    9.2859  -10.3334 H         1 <0>         0.0000
     32 H4          2.9479    8.0065   -8.1968 H         1 <0>         0.0000
     33 H5          0.4607   -0.8377   -6.5055 H         1 <0>         0.0000
     34 H6          1.0346    1.5755   -3.0344 H         1 <0>         0.0000
     35 H7          2.5758    5.1043  -12.9142 H         1 <0>         0.0000
     36 H8          1.0744    1.0591   -7.9711 H         1 <0>         0.0000
     37 H9          1.6636    3.5180   -4.4865 H         1 <0>         0.0000
     38 H10         2.3092    5.8228   -7.1342 H         1 <0>         0.0000
     39 H11         3.7151   -2.4406   -1.3718 H         1 <0>         0.0000
     40 H12         4.7963   -1.2401   -2.0717 H         1 <0>         0.0000
     41 H13         4.7796   -2.4105   -4.1565 H         1 <0>         0.0000
     42 H14         3.9526   -3.7089   -3.3086 H         1 <0>         0.0000
     43 H15         2.2128   -0.5177   -1.4555 H         1 <0>         0.0000
     44 H16         2.9424    0.0432   -2.9616 H         1 <0>         0.0000
     45 H17         2.7817   -1.5621   -5.0838 H         1 <0>         0.0000
     46 H18         2.1279   -3.1716   -4.7839 H         1 <0>         0.0000
     47 H19         1.2831   -2.4934   -2.6001 H         1 <0>         0.0000
     48 H20         0.8081    3.1745   -8.8325 H         1 <0>         0.0000
     49 H21         2.5110    2.6917   -8.7777 H         1 <0>         0.0000
     50 H22        -1.1551   -1.9867   -4.1539 H         1 <0>         0.0000
@<TRIPOS>BOND
     1    1    2 ar
     2    1    3 ar
     3    1   29 1
     4    2    7 ar
     5    2   30 1
     6    3   11 ar
     7    3   31 1
     8    4   10 ar
     9    4   11 ar
    10    4   32 1
    11    5    8 ar
    12    5   12 ar
    13    5   33 1
    14    6    9 ar
    15    6   12 ar
    16    6   34 1
    17    7   13 ar
    18    7   35 1
    19    8   14 ar
    20    8   36 1
    21    9   14 ar
    22    9   37 1
    23   10   15 ar
    24   10   38 1
    25   11   13 ar
    26   12   23 1
    27   13   24 ar
    28   14   28 1
    29   15   22 1
    30   15   24 ar
    31   16   23 1
    32   16   25 1
    33   16   26 2
    34   17   18 1
    35   17   19 1
    36   17   39 1
    37   17   40 1
    38   18   20 1
    39   18   41 1
    40   18   42 1
    41   19   21 1
    42   19   43 1
    43   19   44 1
    44   20   21 1
    45   20   45 1
    46   20   46 1
    47   21   23 1
    48   21   47 1
    49   22   28 1
    50   22   48 1
    51   22   49 1
    52   23   27 1
    53   27   50 1
