@<TRIPOS>MOLECULE
*****
   32    32     0     0     0
SMALL
NO_CHARGES

@<TRIPOS>ATOM
      1 C1          1.3239   -0.9676   -5.5373 C.ar      1 <0>         0.0000
      2 C2          0.1334   -0.4150   -6.0165 C.ar      1 <0>         0.0000
      3 C3          1.5400   -1.0899   -4.1625 C.ar      1 <0>         0.0000
      4 C4         -0.6260   -0.0846   -3.7535 C.ar      1 <0>         0.0000
      5 C5         -0.8590    0.0275   -5.1296 C.ar      1 <0>         0.0000
      6 C6          0.5611   -0.6409   -3.2709 C.ar      1 <0>         0.0000
      7 C7         -0.0781   -1.4046   -1.0591 C.2       1 <0>         0.0000
      8 C8         -3.2491   -0.5436   -5.7272 C.3       1 <0>         0.0000
      9 C9          1.4845    1.5827   -1.1934 C.3       1 <0>         0.0000
     10 C10        -2.1797    0.5607   -5.6386 C.3       1 <0>         0.0000
     11 C11         0.1752   -1.4269    0.4565 C.3       1 <0>         0.0000
     12 C12         1.8859    0.1102   -1.3136 C.3       1 <0>         0.0000
     13 N1          0.8032   -0.7275   -1.8555 N.am      1 <0>         0.0000
     14 O1         -1.0575   -2.0162   -1.4957 O.2       1 <0>         0.0000
     15 O2         -0.8556   -2.1332    1.1027 O.3       1 <0>         0.0000
     16 H1          2.0824   -1.3136   -6.2346 H         1 <0>         0.0000
     17 H2         -0.0296   -0.3293   -7.0887 H         1 <0>         0.0000
     18 H3          2.4538   -1.5405   -3.7844 H         1 <0>         0.0000
     19 H4         -1.3810    0.2466   -3.0462 H         1 <0>         0.0000
     20 H5         -2.9330   -1.3369   -6.4125 H         1 <0>         0.0000
     21 H6         -4.2009   -0.1382   -6.0873 H         1 <0>         0.0000
     22 H7         -3.4180   -1.0010   -4.7473 H         1 <0>         0.0000
     23 H8          1.1936    1.9835   -2.1686 H         1 <0>         0.0000
     24 H9          0.6401    1.7050   -0.5077 H         1 <0>         0.0000
     25 H10         2.3237    2.1755   -0.8146 H         1 <0>         0.0000
     26 H11        -2.5365    1.3567   -4.9751 H         1 <0>         0.0000
     27 H12        -2.0388    1.0133   -6.6265 H         1 <0>         0.0000
     28 H13         1.1455   -1.9053    0.6546 H         1 <0>         0.0000
     29 H14         0.2240   -0.4008    0.8445 H         1 <0>         0.0000
     30 H15         2.1972   -0.2871   -0.3467 H         1 <0>         0.0000
     31 H16         2.7472    0.0122   -1.9792 H         1 <0>         0.0000
     32 H17        -1.4276   -2.4659    0.3792 H         1 <0>         0.0000
@<TRIPOS>BOND
     1    1    2 ar
     2    1    3 ar
     3    1   16 1
     4    2    5 ar
     5    2   17 1
     6    3    6 ar
     7    3   18 1
     8    4    5 ar
     9    4    6 ar
    10    4   19 1
    11    5   10 1
    12    6   13 1
    13    7   11 1
    14    7   13 am
    15    7   14 2
    16    8   10 1
    17    8   20 1
    18    8   21 1
    19    8   22 1
    20    9   12 1
    21    9   23 1
    22    9   24 1
    23    9   25 1
    24   10   26 1
    25   10   27 1
    26   11   15 1
    27   11   28 1
    28   11   29 1
    29   12   13 1
    30   12   30 1
    31   12   31 1
    32   15   32 1
