@<TRIPOS>MOLECULE
*****
   42    42     0     0     0
SMALL
NO_CHARGES

@<TRIPOS>ATOM
      1 C1         -2.1317    0.2679    0.9694 C.1       1 <0>         0.0000
      2 C2          3.6300    3.5975    1.0763 C.ar      1 <0>         0.0000
      3 C3          2.3165    3.6909    0.6117 C.ar      1 <0>         0.0000
      4 C4          3.9237    2.7691    2.1578 C.ar      1 <0>         0.0000
      5 C5          1.2770    2.9823    1.2268 C.ar      1 <0>         0.0000
      6 C6          2.9172    2.0265    2.7929 C.ar      1 <0>         0.0000
      7 C7          1.5886    2.1647    2.3380 C.ar      1 <0>         0.0000
      8 C8         -2.7284    0.2995   -0.1999 C.2       1 <0>         0.0000
      9 C9         -1.5184    0.2542    2.1282 C.2       1 <0>         0.0000
     10 C10         0.0844    1.7016    4.2405 C.2       1 <0>         0.0000
     11 C11        -0.1268    3.0988    0.6890 C.3       1 <0>         0.0000
     12 C12         3.3115    1.1130    3.9340 C.3       1 <0>         0.0000
     13 C13         0.5000   -1.0713    2.8713 C.3       1 <0>         0.0000
     14 C14         1.4124    5.4299    3.8431 C.3       1 <0>         0.0000
     15 C15         0.6724    2.8993    4.9885 C.3       1 <0>         0.0000
     16 C16        -0.0047    0.2385    2.2464 C.3       1 <0>         0.0000
     17 N1          0.5315    1.4292    2.9755 N.am      1 <0>         0.0000
     18 O1         -0.7530    1.0085    4.8169 O.2       1 <0>         0.0000
     19 O2         -0.9916    4.3621    3.4260 O.2       1 <0>         0.0000
     20 O3         -0.4001    5.2175    5.7591 O.2       1 <0>         0.0000
     21 S1         -0.0148    4.5422    4.5104 S.o2      1 <0>         0.0000
     22 H1          4.4213    4.1644    0.5928 H         1 <0>         0.0000
     23 H2          2.0859    4.3332   -0.2346 H         1 <0>         0.0000
     24 H3          4.9482    2.6804    2.5122 H         1 <0>         0.0000
     25 H4         -2.9690   -0.6138   -0.7415 H         1 <0>         0.0000
     26 H5         -3.0156    1.2453   -0.6572 H         1 <0>         0.0000
     27 H6         -2.0868    0.2119    3.0535 H         1 <0>         0.0000
     28 H7         -0.3384    2.2883   -0.0174 H         1 <0>         0.0000
     29 H8         -0.8681    3.0538    1.4851 H         1 <0>         0.0000
     30 H9         -0.2513    4.0448    0.1557 H         1 <0>         0.0000
     31 H10         3.7479    1.6819    4.7633 H         1 <0>         0.0000
     32 H11         2.4745    0.5370    4.3261 H         1 <0>         0.0000
     33 H12         4.0764    0.4040    3.6004 H         1 <0>         0.0000
     34 H13         0.1385   -1.1790    3.8955 H         1 <0>         0.0000
     35 H14         0.1337   -1.9166    2.2816 H         1 <0>         0.0000
     36 H15         1.5940   -1.1015    2.8697 H         1 <0>         0.0000
     37 H16         1.0281    6.4029    3.5302 H         1 <0>         0.0000
     38 H17         2.1483    5.5536    4.6391 H         1 <0>         0.0000
     39 H18         1.8220    4.8881    2.9920 H         1 <0>         0.0000
     40 H19         1.7555    2.9809    4.9128 H         1 <0>         0.0000
     41 H20         0.3855    2.7902    6.0342 H         1 <0>         0.0000
     42 H21         0.4089    0.3185    1.2408 H         1 <0>         0.0000
@<TRIPOS>BOND
     1    1    8 2
     2    1    9 2
     3    2    4 ar
     4    2    3 ar
     5    2   22 1
     6    3    5 ar
     7    3   23 1
     8    4    6 ar
     9    4   24 1
    10    5    7 ar
    11    5   11 1
    12    6    7 ar
    13    6   12 1
    14    7   17 1
    15    8   25 1
    16    8   26 1
    17    9   16 1
    18    9   27 1
    19   10   15 1
    20   10   17 am
    21   10   18 2
    22   11   28 1
    23   11   29 1
    24   11   30 1
    25   12   31 1
    26   12   32 1
    27   12   33 1
    28   13   16 1
    29   13   34 1
    30   13   35 1
    31   13   36 1
    32   14   21 1
    33   14   37 1
    34   14   38 1
    35   14   39 1
    36   15   21 1
    37   15   40 1
    38   15   41 1
    39   16   17 1
    40   16   42 1
    41   19   21 2
    42   20   21 2
