@<TRIPOS>MOLECULE
*****
   66    70     0     0     0
SMALL
NO_CHARGES

@<TRIPOS>ATOM
      1 C1         -1.4468   -1.8916   -5.0305 C.ar      1 <0>         0.0000
      2 C2         -0.3650   -3.6339   -3.6713 C.ar      1 <0>         0.0000
      3 C3         -0.9483   -4.0074   -6.0047 C.ar      1 <0>         0.0000
      4 C4         -0.8960   -2.3420   -3.8044 C.ar      1 <0>         0.0000
      5 C5         -1.4729   -2.7243   -6.1454 C.ar      1 <0>         0.0000
      6 C6         -0.8758   -5.0518   -6.9719 C.2       1 <0>         0.0000
      7 C7         -0.4021   -4.4686   -4.7887 C.ar      1 <0>         0.0000
      8 C8         -0.2899   -6.1357   -6.3496 C.2       1 <0>         0.0000
      9 C9          0.8675   -1.6874  -10.9087 C.2       1 <0>         0.0000
     10 C10        -1.4042   -4.7981   -8.3588 C.3       1 <0>         0.0000
     11 C11        -0.8636   -1.7003   -8.3710 C.3       1 <0>         0.0000
     12 C12        -1.9952   -2.5966  -10.4930 C.3       1 <0>         0.0000
     13 C13         0.3740   -1.2932   -0.1523 C.3       1 <0>         0.0000
     14 C14        -1.1282   -1.0837    0.0235 C.3       1 <0>         0.0000
     15 C15        -1.9652   -2.3755   -7.5346 C.3       1 <0>         0.0000
     16 C16        -0.9065   -1.4022   -2.6221 C.3       1 <0>         0.0000
     17 C17        -1.3290   -1.3941   -9.8038 C.3       1 <0>         0.0000
     18 C18        -2.4566   -3.6695   -8.2339 C.3       1 <0>         0.0000
     19 C19         0.0453   -7.4971   -6.8655 C.3       1 <0>         0.0000
     20 C20         3.1144   -2.5777  -13.1090 C.3       1 <0>         0.0000
     21 C21         2.3431    1.3338  -10.9423 C.3       1 <0>         0.0000
     22 C22        -3.7247   -4.3700  -10.3189 C.3       1 <0>         0.0000
     23 C23         3.1366   -1.8733  -11.7513 C.3       1 <0>         0.0000
     24 C24         1.9075    0.3075  -11.9950 C.3       1 <0>         0.0000
     25 N1          0.0001   -5.7753   -5.0301 N.pl3     1 <0>         0.0000
     26 N2         -0.2736   -0.8975  -10.6857 N.am      1 <0>         0.0000
     27 N3          1.9254   -1.0742  -11.5051 N.am      1 <0>         0.0000
     28 N4         -3.0212   -3.2564   -9.5995 N.4       1 <0>         0.0000
     29 O1          0.8702   -2.8905  -10.5978 O.2       1 <0>         0.0000
     30 S1          0.7988   -1.0861   -1.9301 S.3       1 <0>         0.0000
     31 S2         -1.9742   -2.0525   -1.2717 S.3       1 <0>         0.0000
     32 H1         -1.8511   -0.8826   -5.0850 H         1 <0>         0.0000
     33 H2          0.0559   -3.9467   -2.7206 H         1 <0>         0.0000
     34 H3         -0.5978   -4.4973   -9.0366 H         1 <0>         0.0000
     35 H4         -1.8698   -5.6967   -8.7755 H         1 <0>         0.0000
     36 H5         -0.5706   -0.7648   -7.8850 H         1 <0>         0.0000
     37 H6          0.0190   -2.3398   -8.4002 H         1 <0>         0.0000
     38 H7         -2.5126   -2.2771  -11.4004 H         1 <0>         0.0000
     39 H8         -1.2505   -3.3460  -10.7470 H         1 <0>         0.0000
     40 H9          0.9424   -0.5498    0.4139 H         1 <0>         0.0000
     41 H10         0.6652   -2.2930    0.1766 H         1 <0>         0.0000
     42 H11        -1.4723   -1.4532    0.9941 H         1 <0>         0.0000
     43 H12        -1.3925   -0.0265   -0.0649 H         1 <0>         0.0000
     44 H13        -2.8259   -1.6938   -7.4529 H         1 <0>         0.0000
     45 H14        -1.3033   -0.4346   -2.9347 H         1 <0>         0.0000
     46 H15        -2.0752   -0.5902   -9.7560 H         1 <0>         0.0000
     47 H16        -3.3208   -4.0556   -7.6851 H         1 <0>         0.0000
     48 H17         1.1279   -7.6691   -6.8706 H         1 <0>         0.0000
     49 H18        -0.4140   -8.2839   -6.2562 H         1 <0>         0.0000
     50 H19        -0.3120   -7.6145   -7.8910 H         1 <0>         0.0000
     51 H20         2.2802   -3.2828  -13.1563 H         1 <0>         0.0000
     52 H21         3.0133   -1.8619  -13.9318 H         1 <0>         0.0000
     53 H22         4.0448   -3.1342  -13.2607 H         1 <0>         0.0000
     54 H23         1.6761    1.3367  -10.0729 H         1 <0>         0.0000
     55 H24         3.3511    1.1123  -10.5799 H         1 <0>         0.0000
     56 H25         2.3474    2.3415  -11.3696 H         1 <0>         0.0000
     57 H26        -2.9845   -5.0836  -10.6749 H         1 <0>         0.0000
     58 H27        -4.4172   -4.8561   -9.6310 H         1 <0>         0.0000
     59 H28        -4.2679   -3.9508  -11.1666 H         1 <0>         0.0000
     60 H29         3.9924   -1.1949  -11.6794 H         1 <0>         0.0000
     61 H30         3.2259   -2.6045  -10.9474 H         1 <0>         0.0000
     62 H31         2.5845    0.3540  -12.8521 H         1 <0>         0.0000
     63 H32         0.9156    0.5431  -12.3934 H         1 <0>         0.0000
     64 H33         0.4285   -6.3924   -4.3532 H         1 <0>         0.0000
     65 H34        -0.1317    0.1021  -10.6314 H         1 <0>         0.0000
     66 H35        -3.7323   -2.5494   -9.3854 H         1 <0>         0.0000
@<TRIPOS>BOND
     1    1    4 ar
     2    1    5 ar
     3    1   32 1
     4    2    4 ar
     5    2    7 ar
     6    2   33 1
     7    3    5 ar
     8    3    6 1
     9    3    7 ar
    10    4   16 1
    11    5   15 1
    12    6    8 2
    13    6   10 1
    14    7   25 1
    15    8   19 1
    16    8   25 1
    17    9   26 am
    18    9   27 am
    19    9   29 2
    20   10   18 1
    21   10   34 1
    22   10   35 1
    23   11   15 1
    24   11   17 1
    25   11   36 1
    26   11   37 1
    27   12   17 1
    28   12   28 1
    29   12   38 1
    30   12   39 1
    31   13   14 1
    32   13   30 1
    33   13   40 1
    34   13   41 1
    35   14   31 1
    36   14   42 1
    37   14   43 1
    38   15   18 1
    39   15   44 1
    40   16   31 1
    41   16   30 1
    42   16   45 1
    43   17   26 1
    44   17   46 1
    45   18   28 1
    46   18   47 1
    47   19   48 1
    48   19   49 1
    49   19   50 1
    50   20   23 1
    51   20   51 1
    52   20   52 1
    53   20   53 1
    54   21   24 1
    55   21   54 1
    56   21   55 1
    57   21   56 1
    58   22   28 1
    59   22   57 1
    60   22   58 1
    61   22   59 1
    62   23   27 1
    63   23   60 1
    64   23   61 1
    65   24   27 1
    66   24   62 1
    67   24   63 1
    68   25   64 1
    69   26   65 1
    70   28   66 1
