@<TRIPOS>MOLECULE
*****
   51    52     0     0     0
SMALL
NO_CHARGES

@<TRIPOS>ATOM
      1 C1          1.4834   -5.0080   11.8297 C.ar      1 <0>         0.0000
      2 C2          3.1368   -5.3138    9.5857 C.ar      1 <0>         0.0000
      3 C3          5.4348   -6.0586   12.2185 C.ar      1 <0>         0.0000
      4 C4          2.8338   -5.3954   12.0163 C.ar      1 <0>         0.0000
      5 C5          3.6744   -5.5315   10.8797 C.ar      1 <0>         0.0000
      6 C6          0.9703   -4.7929   10.5696 C.ar      1 <0>         0.0000
      7 C7          1.8092   -4.9620    9.4210 C.ar      1 <0>         0.0000
      8 C8          3.4488   -5.6638   13.2924 C.ar      1 <0>         0.0000
      9 C9          3.2494   -7.5218   15.8916 C.3       1 <0>         0.0000
     10 C10         2.4377   -5.3098   16.8532 C.3       1 <0>         0.0000
     11 C11        -0.6220   -3.1349    9.9827 C.3       1 <0>         0.0000
     12 C12         0.5601   -4.4331    0.5202 C.3       1 <0>         0.0000
     13 C13         1.0588   -4.7040    5.8425 C.3       1 <0>         0.0000
     14 C14         1.7938   -4.9034    4.5106 C.3       1 <0>         0.0000
     15 C15         1.9743   -4.9585    7.0310 C.3       1 <0>         0.0000
     16 C16         0.8747   -4.6386    3.3212 C.3       1 <0>         0.0000
     17 C17         3.2527   -5.9937   15.7539 C.3       1 <0>         0.0000
     18 N1          5.0001   -5.8682   10.9894 N.ar      1 <0>         0.0000
     19 N2          4.7399   -5.9873   13.3785 N.ar      1 <0>         0.0000
     20 N3          2.9047   -3.8429    1.5205 N.2       1 <0>         0.0000
     21 N4          2.7307   -5.5676   14.4490 N.pl3     1 <0>         0.0000
     22 O1          2.0429   -6.3665    1.6860 O.2       1 <0>         0.0000
     23 O2         -0.3607   -4.4748   10.4288 O.3       1 <0>         0.0000
     24 O3          1.2006   -4.7575    8.2189 O.3       1 <0>         0.0000
     25 S1          1.7922   -4.9019    1.7463 S.o       1 <0>         0.0000
     26 H1          0.8026   -4.8605   12.6633 H         1 <0>         0.0000
     27 H2          3.8098   -5.4446    8.7471 H         1 <0>         0.0000
     28 H3          6.4875   -6.3175   12.3287 H         1 <0>         0.0000
     29 H4          2.2268   -7.9153   15.8445 H         1 <0>         0.0000
     30 H5          3.8374   -7.9758   15.0903 H         1 <0>         0.0000
     31 H6          3.6850   -7.8223   16.8508 H         1 <0>         0.0000
     32 H7          1.3847   -5.6179   16.8151 H         1 <0>         0.0000
     33 H8          2.4818   -4.2208   16.7554 H         1 <0>         0.0000
     34 H9          2.8235   -5.5850   17.8393 H         1 <0>         0.0000
     35 H10        -1.7085   -3.0315    9.9577 H         1 <0>         0.0000
     36 H11        -0.2120   -2.9624    8.9836 H         1 <0>         0.0000
     37 H12        -0.2004   -2.4082   10.6886 H         1 <0>         0.0000
     38 H13         1.0166   -4.6241   -0.4518 H         1 <0>         0.0000
     39 H14        -0.3202   -5.0618    0.6617 H         1 <0>         0.0000
     40 H15         0.3258   -3.3742    0.6293 H         1 <0>         0.0000
     41 H16         0.6665   -3.6826    5.9094 H         1 <0>         0.0000
     42 H17         0.2012   -5.3826    5.9080 H         1 <0>         0.0000
     43 H18         2.1795   -5.9262    4.4438 H         1 <0>         0.0000
     44 H19         2.6536   -4.2242    4.4596 H         1 <0>         0.0000
     45 H20         2.3624   -5.9850    7.0135 H         1 <0>         0.0000
     46 H21         2.8282   -4.2683    7.0230 H         1 <0>         0.0000
     47 H22         0.0239   -5.3264    3.3110 H         1 <0>         0.0000
     48 H23         0.5174   -3.6045    3.3084 H         1 <0>         0.0000
     49 H24         4.2862   -5.6438   15.7958 H         1 <0>         0.0000
     50 H25         3.7450   -4.0886    2.0477 H         1 <0>         0.0000
     51 H26         1.7238   -5.5460   14.3613 H         1 <0>         0.0000
@<TRIPOS>BOND
     1    1    4 ar
     2    1    6 ar
     3    1   26 1
     4    2    5 ar
     5    2    7 ar
     6    2   27 1
     7    3   18 ar
     8    3   19 ar
     9    3   28 1
    10    4    5 ar
    11    4    8 ar
    12    5   18 ar
    13    6    7 ar
    14    6   23 1
    15    7   24 1
    16    8   19 ar
    17    8   21 1
    18    9   17 1
    19    9   29 1
    20    9   30 1
    21    9   31 1
    22   10   17 1
    23   10   32 1
    24   10   33 1
    25   10   34 1
    26   11   23 1
    27   11   35 1
    28   11   36 1
    29   11   37 1
    30   12   25 1
    31   12   38 1
    32   12   39 1
    33   12   40 1
    34   13   14 1
    35   13   15 1
    36   13   41 1
    37   13   42 1
    38   14   16 1
    39   14   43 1
    40   14   44 1
    41   15   24 1
    42   15   45 1
    43   15   46 1
    44   16   25 1
    45   16   47 1
    46   16   48 1
    47   17   21 1
    48   17   49 1
    49   20   25 2
    50   20   50 1
    51   21   51 1
    52   22   25 2
