@<TRIPOS>MOLECULE
*****
   66    70     0     0     0
SMALL
NO_CHARGES

@<TRIPOS>ATOM
      1 C1         -1.0964   -2.1734   -5.2556 C.ar      1 <0>         0.0000
      2 C2         -0.6076   -4.1241   -3.8390 C.ar      1 <0>         0.0000
      3 C3         -1.0084   -4.3442   -6.2303 C.ar      1 <0>         0.0000
      4 C4         -0.7995   -2.7425   -3.9922 C.ar      1 <0>         0.0000
      5 C5         -1.2000   -2.9740   -6.3901 C.ar      1 <0>         0.0000
      6 C6         -1.0865   -5.3769   -7.2091 C.2       1 <0>         0.0000
      7 C7         -0.7225   -4.9236   -4.9761 C.ar      1 <0>         0.0000
      8 C8         -0.8512   -6.5711   -6.5565 C.2       1 <0>         0.0000
      9 C9          0.5364   -0.3480  -11.7990 C.2       1 <0>         0.0000
     10 C10        -1.3877   -5.0043   -8.6342 C.3       1 <0>         0.0000
     11 C11        -0.1827   -2.0001   -8.4980 C.3       1 <0>         0.0000
     12 C12        -1.1572   -2.6503  -10.7338 C.3       1 <0>         0.0000
     13 C13         0.2532   -2.0441   -0.1913 C.3       1 <0>         0.0000
     14 C14        -1.1613   -1.4692   -0.1808 C.3       1 <0>         0.0000
     15 C15        -1.4645   -2.5043   -7.8057 C.3       1 <0>         0.0000
     16 C16        -0.7157   -1.8292   -2.7918 C.3       1 <0>         0.0000
     17 C17        -0.4852   -1.5329   -9.9204 C.3       1 <0>         0.0000
     18 C18        -2.1402   -3.6511   -8.6101 C.3       1 <0>         0.0000
     19 C19        -0.8075   -7.9750   -7.0660 C.3       1 <0>         0.0000
     20 C20         1.3186    2.2967  -13.5337 C.3       1 <0>         0.0000
     21 C21         3.7806   -1.2389  -12.1433 C.3       1 <0>         0.0000
     22 C22        -3.2017   -4.0731  -10.8849 C.3       1 <0>         0.0000
     23 C23         1.5323    0.7906  -13.6980 C.3       1 <0>         0.0000
     24 C24         3.0002    0.0352  -11.7985 C.3       1 <0>         0.0000
     25 N1         -0.6236   -6.2896   -5.2073 N.pl3     1 <0>         0.0000
     26 N2          0.7006   -1.0444  -10.5927 N.am      1 <0>         0.0000
     27 N3          1.6703    0.0892  -12.4119 N.am      1 <0>         0.0000
     28 N4         -2.4081   -3.1297  -10.0285 N.4       1 <0>         0.0000
     29 O1         -0.6057   -0.1515  -12.2423 O.2       1 <0>         0.0000
     30 S1          0.9214   -1.9459   -1.9026 S.3       1 <0>         0.0000
     31 S2         -2.0612   -2.1979   -1.5919 S.3       1 <0>         0.0000
     32 H1         -1.2467   -1.0978   -5.3238 H         1 <0>         0.0000
     33 H2         -0.3786   -4.5297   -2.8583 H         1 <0>         0.0000
     34 H3         -0.4644   -4.9188   -9.2195 H         1 <0>         0.0000
     35 H4         -2.0066   -5.7634   -9.1217 H         1 <0>         0.0000
     36 H5          0.2324   -1.1707   -7.9197 H         1 <0>         0.0000
     37 H6          0.5718   -2.7963   -8.5002 H         1 <0>         0.0000
     38 H7         -1.4534   -2.2654  -11.7100 H         1 <0>         0.0000
     39 H8         -0.5011   -3.5125  -10.8595 H         1 <0>         0.0000
     40 H9          0.9167   -1.4652    0.4574 H         1 <0>         0.0000
     41 H10         0.2492   -3.0853    0.1380 H         1 <0>         0.0000
     42 H11        -1.6971   -1.7427    0.7329 H         1 <0>         0.0000
     43 H12        -1.1457   -0.3795   -0.2677 H         1 <0>         0.0000
     44 H13        -2.1786   -1.6686   -7.7744 H         1 <0>         0.0000
     45 H14        -0.8236   -0.7935   -3.1190 H         1 <0>         0.0000
     46 H15        -1.1892   -0.6936   -9.8793 H         1 <0>         0.0000
     47 H16        -3.1334   -3.8235   -8.1852 H         1 <0>         0.0000
     48 H17         0.1950   -8.4075   -6.9687 H         1 <0>         0.0000
     49 H18        -1.5029   -8.6228   -6.5204 H         1 <0>         0.0000
     50 H19        -1.0806   -8.0069   -8.1233 H         1 <0>         0.0000
     51 H20         0.3900    2.4899  -12.9908 H         1 <0>         0.0000
     52 H21         2.1461    2.7629  -12.9884 H         1 <0>         0.0000
     53 H22         1.2513    2.7768  -14.5153 H         1 <0>         0.0000
     54 H23         3.2718   -2.1399  -11.7813 H         1 <0>         0.0000
     55 H24         3.8977   -1.3416  -13.2261 H         1 <0>         0.0000
     56 H25         4.7780   -1.2107  -11.6932 H         1 <0>         0.0000
     57 H26        -2.5688   -4.9097  -11.1740 H         1 <0>         0.0000
     58 H27        -4.0635   -4.4299  -10.3197 H         1 <0>         0.0000
     59 H28        -3.5301   -3.5368  -11.7756 H         1 <0>         0.0000
     60 H29         2.4385    0.5871  -14.2775 H         1 <0>         0.0000
     61 H30         0.6910    0.3478  -14.2326 H         1 <0>         0.0000
     62 H31         3.5559    0.9090  -12.1496 H         1 <0>         0.0000
     63 H32         2.9061    0.1592  -10.7155 H         1 <0>         0.0000
     64 H33        -0.4377   -6.9917   -4.5035 H         1 <0>         0.0000
     65 H34         1.5701   -1.5260  -10.4062 H         1 <0>         0.0000
     66 H35        -2.9900   -2.2944   -9.9019 H         1 <0>         0.0000
@<TRIPOS>BOND
     1    1    4 ar
     2    1    5 ar
     3    1   32 1
     4    2    4 ar
     5    2    7 ar
     6    2   33 1
     7    3    5 ar
     8    3    6 1
     9    3    7 ar
    10    4   16 1
    11    5   15 1
    12    6    8 2
    13    6   10 1
    14    7   25 1
    15    8   19 1
    16    8   25 1
    17    9   26 am
    18    9   27 am
    19    9   29 2
    20   10   18 1
    21   10   34 1
    22   10   35 1
    23   11   15 1
    24   11   17 1
    25   11   36 1
    26   11   37 1
    27   12   17 1
    28   12   28 1
    29   12   38 1
    30   12   39 1
    31   13   14 1
    32   13   30 1
    33   13   40 1
    34   13   41 1
    35   14   31 1
    36   14   42 1
    37   14   43 1
    38   15   18 1
    39   15   44 1
    40   16   31 1
    41   16   30 1
    42   16   45 1
    43   17   26 1
    44   17   46 1
    45   18   28 1
    46   18   47 1
    47   19   48 1
    48   19   49 1
    49   19   50 1
    50   20   23 1
    51   20   51 1
    52   20   52 1
    53   20   53 1
    54   21   24 1
    55   21   54 1
    56   21   55 1
    57   21   56 1
    58   22   28 1
    59   22   57 1
    60   22   58 1
    61   22   59 1
    62   23   27 1
    63   23   60 1
    64   23   61 1
    65   24   27 1
    66   24   62 1
    67   24   63 1
    68   25   64 1
    69   26   65 1
    70   28   66 1
