@<TRIPOS>MOLECULE
*****
   39    41     0     0     0
SMALL
NO_CHARGES

@<TRIPOS>ATOM
      1 C1         -0.5089    1.8271   -0.4604 C.1       1 <0>         0.0000
      2 C2          1.7809   -3.4369   -4.9617 C.ar      1 <0>         0.0000
      3 C3          1.0066   -4.1940   -4.0763 C.ar      1 <0>         0.0000
      4 C4          1.7046   -2.0404   -4.9235 C.ar      1 <0>         0.0000
      5 C5          0.1643   -3.5572   -3.1595 C.ar      1 <0>         0.0000
      6 C6          0.8606   -1.4092   -4.0051 C.ar      1 <0>         0.0000
      7 C7         -1.9616    0.4676    4.2032 C.2       1 <0>         0.0000
      8 C8         -0.4329    1.5109    3.2001 C.2       1 <0>         0.0000
      9 C9          0.0791   -2.1582   -3.1126 C.ar      1 <0>         0.0000
     10 C10        -2.8151    0.8319   -0.7790 C.3       1 <0>         0.0000
     11 C11        -2.7215    1.3233    0.6324 C.3       1 <0>         0.0000
     12 C12        -1.4640    0.8152   -0.0734 C.3       1 <0>         0.0000
     13 C13        -0.7926   -1.4682   -2.0875 C.3       1 <0>         0.0000
     14 C14         0.0119   -1.1304   -0.8205 C.3       1 <0>         0.0000
     15 C15         0.1427   -0.3175    1.5260 C.3       1 <0>         0.0000
     16 C16        -0.8159   -0.5337    0.3299 C.3       1 <0>         0.0000
     17 N1          0.2968    2.6215   -0.7401 N.1       1 <0>         0.0000
     18 N2         -1.3204    1.6686    4.1765 N.2       1 <0>         0.0000
     19 N3         -1.5217   -0.4172    3.3108 N.2       1 <0>         0.0000
     20 N4         -0.5252    0.2685    2.6766 N.pl3     1 <0>         0.0000
     21 O1         -1.8291   -1.4727    0.6667 O.3       1 <0>         0.0000
     22 H1          2.4340   -3.9300   -5.6772 H         1 <0>         0.0000
     23 H2          1.0559   -5.2798   -4.1024 H         1 <0>         0.0000
     24 H3          2.2995   -1.4438   -5.6106 H         1 <0>         0.0000
     25 H4         -0.4378   -4.1517   -2.4750 H         1 <0>         0.0000
     26 H5          0.8046   -0.3223   -3.9821 H         1 <0>         0.0000
     27 H6         -2.7625    0.2310    4.8918 H         1 <0>         0.0000
     28 H7          0.2760    2.2482    2.8453 H         1 <0>         0.0000
     29 H8         -3.2602   -0.1435   -0.9372 H         1 <0>         0.0000
     30 H9         -2.9483    1.5534   -1.5781 H         1 <0>         0.0000
     31 H10        -2.7790    2.3892    0.8234 H         1 <0>         0.0000
     32 H11        -3.1226    0.6917    1.4163 H         1 <0>         0.0000
     33 H12        -1.2045   -0.5503   -2.5168 H         1 <0>         0.0000
     34 H13        -1.6349   -2.1091   -1.8124 H         1 <0>         0.0000
     35 H14         0.8221   -0.4411   -1.0817 H         1 <0>         0.0000
     36 H15         0.4793   -2.0482   -0.4474 H         1 <0>         0.0000
     37 H16         0.9589    0.3498    1.2446 H         1 <0>         0.0000
     38 H17         0.5617   -1.2824    1.8218 H         1 <0>         0.0000
     39 H18        -2.0268   -1.3892    1.6227 H         1 <0>         0.0000
@<TRIPOS>BOND
     1    1   12 1
     2    1   17 3
     3    2    4 ar
     4    2    3 ar
     5    2   22 1
     6    3    5 ar
     7    3   23 1
     8    4    6 ar
     9    4   24 1
    10    5    9 ar
    11    5   25 1
    12    6    9 ar
    13    6   26 1
    14    7   18 1
    15    7   19 2
    16    7   27 1
    17    8   18 2
    18    8   20 1
    19    8   28 1
    20    9   13 1
    21   10   11 1
    22   10   12 1
    23   10   29 1
    24   10   30 1
    25   11   12 1
    26   11   31 1
    27   11   32 1
    28   12   16 1
    29   13   14 1
    30   13   33 1
    31   13   34 1
    32   14   16 1
    33   14   35 1
    34   14   36 1
    35   15   16 1
    36   15   20 1
    37   15   37 1
    38   15   38 1
    39   16   21 1
    40   19   20 1
    41   21   39 1
