@<TRIPOS>MOLECULE
*****
   23    24     0     0     0
SMALL
NO_CHARGES

@<TRIPOS>ATOM
      1 C1          1.8603   -1.0252   -0.0242 C.ar      1 <0>         0.0000
      2 C2          0.6827   -0.6558    0.6304 C.ar      1 <0>         0.0000
      3 C3          2.9079   -1.6029    0.6968 C.ar      1 <0>         0.0000
      4 C4          0.5683   -0.8611    2.0058 C.ar      1 <0>         0.0000
      5 C5          2.8356   -1.7952    2.0832 C.ar      1 <0>         0.0000
      6 C6          1.6440   -1.4001    2.7096 C.ar      1 <0>         0.0000
      7 C7          4.5841   -3.3045    4.8909 C.2       1 <0>         0.0000
      8 C8          4.9418   -1.4692    3.5480 C.3       1 <0>         0.0000
      9 C9          4.0105   -2.4497    2.7828 C.3       1 <0>         0.0000
     10 N1          3.6511   -3.3556    3.8610 N.am      1 <0>         0.0000
     11 N2          1.4548   -1.5169    4.1711 N.pl3     1 <0>         0.0000
     12 O1          0.4645   -2.1377    4.5595 O.3       1 <0>         0.0000
     13 O2          4.7141   -4.0843    5.8033 O.2       1 <0>         0.0000
     14 O3          2.2681   -0.9419    4.8985 O.2       1 <0>         0.0000
     15 O4          5.3709   -2.1971    4.7122 O.3       1 <0>         0.0000
     16 H1          1.9576   -0.8824   -1.0967 H         1 <0>         0.0000
     17 H2         -0.1449   -0.2213    0.0777 H         1 <0>         0.0000
     18 H3          3.8042   -1.9256    0.1722 H         1 <0>         0.0000
     19 H4         -0.3400   -0.6022    2.5401 H         1 <0>         0.0000
     20 H5          5.8235   -1.1990    2.9646 H         1 <0>         0.0000
     21 H6          4.4081   -0.5748    3.8688 H         1 <0>         0.0000
     22 H7          4.5928   -2.9733    2.0128 H         1 <0>         0.0000
     23 H8          3.2593   -4.2678    3.6624 H         1 <0>         0.0000
@<TRIPOS>BOND
     1    1    2 ar
     2    1    3 ar
     3    1   16 1
     4    2    4 ar
     5    2   17 1
     6    3    5 ar
     7    3   18 1
     8    4    6 ar
     9    4   19 1
    10    5    6 ar
    11    5    9 1
    12    6   11 1
    13    7   10 am
    14    7   13 2
    15    7   15 1
    16    8    9 1
    17    8   15 1
    18    8   20 1
    19    8   21 1
    20    9   10 1
    21    9   22 1
    22   10   23 1
    23   11   12 1
    24   11   14 2
