@<TRIPOS>MOLECULE
*****
   42    45     0     0     0
SMALL
NO_CHARGES

@<TRIPOS>ATOM
      1 C1         -2.7658   -0.2385    2.5135 C.ar      1 <0>         0.0000
      2 C2         -1.6902   -0.7750    1.7996 C.ar      1 <0>         0.0000
      3 C3         -4.0495   -0.7847    2.3610 C.ar      1 <0>         0.0000
      4 C4         -1.8649   -1.8649    0.9370 C.ar      1 <0>         0.0000
      5 C5         -2.2713   -5.2769    2.4134 C.ar      1 <0>         0.0000
      6 C6         -0.0640   -4.3864    2.0692 C.ar      1 <0>         0.0000
      7 C7         -4.2290   -1.8713    1.5139 C.ar      1 <0>         0.0000
      8 C8         -1.2704   -4.8505    1.5382 C.ar      1 <0>         0.0000
      9 C9         -3.1367   -2.4271    0.8263 C.ar      1 <0>         0.0000
     10 C10        -2.1014   -5.2075    3.7965 C.ar      1 <0>         0.0000
     11 C11        -0.9074   -4.6852    4.3426 C.ar      1 <0>         0.0000
     12 C12         0.1050   -4.3031    3.4493 C.ar      1 <0>         0.0000
     13 C13        -2.9304   -4.6514   -0.3935 C.2       1 <0>         0.0000
     14 C14        -5.4837   -2.6469    1.1782 C.3       1 <0>         0.0000
     15 C15        -2.6502   -5.2786    6.9422 C.3       1 <0>         0.0000
     16 C16        -5.0600   -3.4501   -0.0691 C.3       1 <0>         0.0000
     17 C17        -2.8373   -6.2851    5.8075 C.3       1 <0>         0.0000
     18 C18        -1.7988   -4.0982    6.4733 C.3       1 <0>         0.0000
     19 C19        -1.4845   -4.8878    0.0373 C.3       1 <0>         0.0000
     20 N1         -3.5829   -3.5176    0.0355 N.am      1 <0>         0.0000
     21 O1         -3.5237   -5.4934   -1.0700 O.2       1 <0>         0.0000
     22 O2         -3.1624   -5.6282    4.5670 O.3       1 <0>         0.0000
     23 O3         -0.6772   -4.5461    5.6869 O.3       1 <0>         0.0000
     24 Cl1         1.6007   -3.6527    4.0894 Cl        1 <0>         0.0000
     25 H1         -2.6101    0.6111    3.1726 H         1 <0>         0.0000
     26 H2         -0.7002   -0.3397    1.9044 H         1 <0>         0.0000
     27 H3         -4.8957   -0.3602    2.8966 H         1 <0>         0.0000
     28 H4         -1.0221   -2.2388    0.3705 H         1 <0>         0.0000
     29 H5         -3.2127   -5.6724    2.0433 H         1 <0>         0.0000
     30 H6          0.7381   -4.0524    1.4181 H         1 <0>         0.0000
     31 H7         -5.7487   -3.3188    2.0041 H         1 <0>         0.0000
     32 H8         -6.3454   -2.0043    0.9802 H         1 <0>         0.0000
     33 H9         -3.6186   -4.8993    7.2874 H         1 <0>         0.0000
     34 H10        -2.1732   -5.7892    7.7865 H         1 <0>         0.0000
     35 H11        -5.4641   -4.4602   -0.1168 H         1 <0>         0.0000
     36 H12        -5.3326   -2.9273   -0.9927 H         1 <0>         0.0000
     37 H13        -1.9351   -6.8892    5.6698 H         1 <0>         0.0000
     38 H14        -3.6738   -6.9583    6.0089 H         1 <0>         0.0000
     39 H15        -2.3939   -3.3955    5.8817 H         1 <0>         0.0000
     40 H16        -1.3658   -3.5574    7.3180 H         1 <0>         0.0000
     41 H17        -0.8190   -4.1740   -0.4575 H         1 <0>         0.0000
     42 H18        -1.2356   -5.8743   -0.3626 H         1 <0>         0.0000
@<TRIPOS>BOND
     1    1    2 ar
     2    1    3 ar
     3    1   25 1
     4    2    4 ar
     5    2   26 1
     6    3    7 ar
     7    3   27 1
     8    4    9 ar
     9    4   28 1
    10    5    8 ar
    11    5   10 ar
    12    5   29 1
    13    6    8 ar
    14    6   12 ar
    15    6   30 1
    16    7    9 ar
    17    7   14 1
    18    8   19 1
    19    9   20 1
    20   10   11 ar
    21   10   22 1
    22   11   12 ar
    23   11   23 1
    24   12   24 1
    25   13   19 1
    26   13   20 am
    27   13   21 2
    28   14   16 1
    29   14   31 1
    30   14   32 1
    31   15   17 1
    32   15   18 1
    33   15   33 1
    34   15   34 1
    35   16   20 1
    36   16   35 1
    37   16   36 1
    38   17   22 1
    39   17   37 1
    40   17   38 1
    41   18   23 1
    42   18   39 1
    43   18   40 1
    44   19   41 1
    45   19   42 1
