@<TRIPOS>MOLECULE
*****
   31    32     0     0     0
SMALL
NO_CHARGES

@<TRIPOS>ATOM
      1 C1          7.0411   -5.4515   -2.2630 C.ar      1 <0>         0.0000
      2 C2          5.9998   -5.0780   -3.1181 C.ar      1 <0>         0.0000
      3 C3          7.0954   -4.9359   -0.9585 C.ar      1 <0>         0.0000
      4 C4          5.0168   -4.1925   -2.6722 C.ar      1 <0>         0.0000
      5 C5          6.1207   -4.0497   -0.5087 C.ar      1 <0>         0.0000
      6 C6          1.9543   -1.0590   -0.3296 C.ar      1 <0>         0.0000
      7 C7          1.1712    0.4378    1.3851 C.ar      1 <0>         0.0000
      8 C8          0.9917   -0.1622    0.1220 C.ar      1 <0>         0.0000
      9 C9          5.0731   -3.6697   -1.3701 C.ar      1 <0>         0.0000
     10 C10         3.0781   -1.3621    0.4581 C.ar      1 <0>         0.0000
     11 C11         3.2524   -0.7597    1.7275 C.ar      1 <0>         0.0000
     12 C12         2.2794    0.1474    2.1730 C.ar      1 <0>         0.0000
     13 C13        -1.4536   -0.7219   -0.2568 C.3       1 <0>         0.0000
     14 C14        -0.2512    0.1363   -0.6880 C.3       1 <0>         0.0000
     15 N1          4.0261   -2.7798   -1.0337 N.2       1 <0>         0.0000
     16 N2          4.1144   -2.2445    0.1088 N.2       1 <0>         0.0000
     17 O1          4.3331   -1.0437    2.4886 O.3       1 <0>         0.0000
     18 Br1         2.4977    0.9950    3.8709 Br        1 <0>         0.0000
     19 H1          7.8069   -6.1424   -2.6055 H         1 <0>         0.0000
     20 H2          5.9533   -5.4763   -4.1280 H         1 <0>         0.0000
     21 H3          7.9032   -5.2319   -0.2941 H         1 <0>         0.0000
     22 H4          4.1967   -3.8877   -3.3161 H         1 <0>         0.0000
     23 H5          6.1556   -3.6516    0.4994 H         1 <0>         0.0000
     24 H6          1.8611   -1.5431   -1.2967 H         1 <0>         0.0000
     25 H7          0.4342    1.1453    1.7553 H         1 <0>         0.0000
     26 H8         -1.2336   -1.7877   -0.3780 H         1 <0>         0.0000
     27 H9         -2.3392   -0.4839   -0.8560 H         1 <0>         0.0000
     28 H10        -1.6999   -0.5517    0.7966 H         1 <0>         0.0000
     29 H11        -0.5083    1.1973   -0.5888 H         1 <0>         0.0000
     30 H12        -0.0426   -0.0366   -1.7492 H         1 <0>         0.0000
     31 H13         4.8585   -1.6877    1.9683 H         1 <0>         0.0000
@<TRIPOS>BOND
     1    1    3 ar
     2    1    2 ar
     3    1   19 1
     4    2    4 ar
     5    2   20 1
     6    3    5 ar
     7    3   21 1
     8    4    9 ar
     9    4   22 1
    10    5    9 ar
    11    5   23 1
    12    6    8 ar
    13    6   10 ar
    14    6   24 1
    15    7    8 ar
    16    7   12 ar
    17    7   25 1
    18    8   14 1
    19    9   15 1
    20   10   11 ar
    21   10   16 1
    22   11   12 ar
    23   11   17 1
    24   12   18 1
    25   13   14 1
    26   13   26 1
    27   13   27 1
    28   13   28 1
    29   14   29 1
    30   14   30 1
    31   15   16 2
    32   17   31 1
