@<TRIPOS>MOLECULE
*****
   21    21     0     0     0
SMALL
NO_CHARGES

@<TRIPOS>ATOM
      1 C1          1.8386   -1.0969   -0.2003 C.ar      1 <0>         0.0000
      2 C2          0.7776   -0.4717    0.4614 C.ar      1 <0>         0.0000
      3 C3          2.8584   -1.6995    0.5388 C.ar      1 <0>         0.0000
      4 C4          0.7442   -0.4519    1.8576 C.ar      1 <0>         0.0000
      5 C5          2.8517   -1.7007    1.9422 C.ar      1 <0>         0.0000
      6 C6          1.7751   -1.0599    2.5777 C.ar      1 <0>         0.0000
      7 C7          4.9466   -1.3708    3.3443 C.2       1 <0>         0.0000
      8 C8          3.9712   -2.3508    2.7184 C.3       1 <0>         0.0000
      9 N1          5.7088   -1.6432    4.3463 N.2       1 <0>         0.0000
     10 N2          5.1060   -0.1313    2.7242 N.pl3     1 <0>         0.0000
     11 O1          5.5479   -3.0022    4.7557 O.3       1 <0>         0.0000
     12 Cl1         1.7089   -1.0017    4.3358 Cl        1 <0>         0.0000
     13 H1          1.8726   -1.1142   -1.2860 H         1 <0>         0.0000
     14 H2         -0.0232   -0.0001   -0.1015 H         1 <0>         0.0000
     15 H3          3.6873   -2.1792    0.0246 H         1 <0>         0.0000
     16 H4         -0.0713    0.0292    2.3883 H         1 <0>         0.0000
     17 H5          3.5815   -2.9831    3.5183 H         1 <0>         0.0000
     18 H6          4.5443   -3.0059    2.0540 H         1 <0>         0.0000
     19 H7          4.2358    0.2966    2.4252 H         1 <0>         0.0000
     20 H8          5.6741    0.5033    3.2781 H         1 <0>         0.0000
     21 H9          6.1144   -3.0381    5.5420 H         1 <0>         0.0000
@<TRIPOS>BOND
     1    1    2 ar
     2    1    3 ar
     3    1   13 1
     4    2    4 ar
     5    2   14 1
     6    3    5 ar
     7    3   15 1
     8    4    6 ar
     9    4   16 1
    10    5    6 ar
    11    5    8 1
    12    6   12 1
    13    7    8 1
    14    7    9 2
    15    7   10 1
    16    8   17 1
    17    8   18 1
    18    9   11 1
    19   10   19 1
    20   10   20 1
    21   11   21 1
