@<TRIPOS>MOLECULE
*****
   21    21     0     0     0
SMALL
NO_CHARGES

@<TRIPOS>ATOM
      1 C1          1.4420   -1.3101    0.1019 C.ar      1 <0>         0.0000
      2 C2          0.6898   -0.3178    0.7388 C.ar      1 <0>         0.0000
      3 C3          2.5094   -1.9113    0.7685 C.ar      1 <0>         0.0000
      4 C4          1.0080    0.0622    2.0433 C.ar      1 <0>         0.0000
      5 C5          2.8599   -1.5446    2.0794 C.ar      1 <0>         0.0000
      6 C6          2.0785   -0.5559    2.6943 C.ar      1 <0>         0.0000
      7 C7          3.5982   -3.5395    3.4108 C.2       1 <0>         0.0000
      8 C8          4.0249   -2.2368    2.7625 C.3       1 <0>         0.0000
      9 N1          3.6248   -4.6997    2.8494 N.2       1 <0>         0.0000
     10 N2          3.1923   -3.4671    4.7412 N.pl3     1 <0>         0.0000
     11 O1          4.1588   -4.6266    1.5229 O.3       1 <0>         0.0000
     12 Cl1         2.4232   -0.0412    4.3534 Cl        1 <0>         0.0000
     13 H1          1.1972   -1.6145   -0.9120 H         1 <0>         0.0000
     14 H2         -0.1420    0.1599    0.2283 H         1 <0>         0.0000
     15 H3          3.0880   -2.6941    0.2877 H         1 <0>         0.0000
     16 H4          0.4350    0.8281    2.5561 H         1 <0>         0.0000
     17 H5          4.7921   -2.4623    2.0213 H         1 <0>         0.0000
     18 H6          4.4653   -1.5954    3.5279 H         1 <0>         0.0000
     19 H7          2.6955   -2.6153    4.9803 H         1 <0>         0.0000
     20 H8          2.7134   -4.3044    5.0587 H         1 <0>         0.0000
     21 H9          4.1954   -5.5643    1.2784 H         1 <0>         0.0000
@<TRIPOS>BOND
     1    1    2 ar
     2    1    3 ar
     3    1   13 1
     4    2    4 ar
     5    2   14 1
     6    3    5 ar
     7    3   15 1
     8    4    6 ar
     9    4   16 1
    10    5    6 ar
    11    5    8 1
    12    6   12 1
    13    7    8 1
    14    7    9 2
    15    7   10 1
    16    8   17 1
    17    8   18 1
    18    9   11 1
    19   10   19 1
    20   10   20 1
    21   11   21 1
