@<TRIPOS>MOLECULE
*****
   25    26     0     0     0
SMALL
NO_CHARGES

@<TRIPOS>ATOM
      1 C1          1.7091   -2.6060    0.6282 C.ar      1 <0>         0.0000
      2 C2          0.6106   -2.1631    1.3528 C.ar      1 <0>         0.0000
      3 C3          1.7722   -0.0759    1.8020 C.ar      1 <0>         0.0000
      4 C4          4.5901   -7.0174   -2.9838 C.2       1 <0>         0.0000
      5 C5          2.8627   -1.8131    0.4577 C.ar      1 <0>         0.0000
      6 C6          0.6512   -0.8922    1.9375 C.ar      1 <0>         0.0000
      7 C7          2.8628   -0.5432    1.0662 C.ar      1 <0>         0.0000
      8 C8          5.1177   -5.1104   -2.0927 C.2       1 <0>         0.0000
      9 C9          4.0097   -2.3055   -0.3094 C.2       1 <0>         0.0000
     10 N1          5.8384   -7.1001   -2.5971 N.2       1 <0>         0.0000
     11 N2          6.1772   -5.8800   -2.0110 N.2       1 <0>         0.0000
     12 N3          3.9379   -3.4030   -0.9792 N.2       1 <0>         0.0000
     13 N4          4.0788   -5.7704   -2.7011 N.pl3     1 <0>         0.0000
     14 N5          2.7967   -5.3100   -3.0554 N.3       1 <0>         0.0000
     15 N6          5.0505   -3.7784   -1.6944 N.pl3     1 <0>         0.0000
     16 Cl1        -0.7202   -0.3173    2.8592 Cl        1 <0>         0.0000
     17 Cl2         4.2466    0.5322    0.9188 Cl        1 <0>         0.0000
     18 H1          1.6991   -3.5963    0.1854 H         1 <0>         0.0000
     19 H2         -0.2653   -2.7918    1.4745 H         1 <0>         0.0000
     20 H3          1.7998    0.9076    2.2574 H         1 <0>         0.0000
     21 H4          4.0007   -7.7923   -3.4545 H         1 <0>         0.0000
     22 H5          4.9264   -1.7100   -0.2935 H         1 <0>         0.0000
     23 H6          2.9102   -4.6004   -3.7809 H         1 <0>         0.0000
     24 H7          2.4136   -4.8391   -2.2363 H         1 <0>         0.0000
     25 H8          5.9551   -3.4234   -1.3802 H         1 <0>         0.0000
@<TRIPOS>BOND
     1    1    2 ar
     2    1    5 ar
     3    1   18 1
     4    2    6 ar
     5    2   19 1
     6    3    6 ar
     7    3    7 ar
     8    3   20 1
     9    4   10 2
    10    4   13 1
    11    4   21 1
    12    5    7 ar
    13    5    9 1
    14    6   16 1
    15    7   17 1
    16    8   11 2
    17    8   13 1
    18    8   15 1
    19    9   12 2
    20    9   22 1
    21   10   11 1
    22   12   15 1
    23   13   14 1
    24   14   23 1
    25   14   24 1
    26   15   25 1
