@<TRIPOS>MOLECULE
*****
   47    50     0     0     0
SMALL
NO_CHARGES

@<TRIPOS>ATOM
      1 C1          5.3507   -0.4402   -1.3935 C.1       1 <0>         0.0000
      2 C2          8.7630   -1.7612   -2.0406 C.ar      1 <0>         0.0000
      3 C3          8.6841   -3.0457   -1.4870 C.ar      1 <0>         0.0000
      4 C4          7.6408   -0.9377   -2.0204 C.ar      1 <0>         0.0000
      5 C5          7.4887   -3.5017   -0.9373 C.ar      1 <0>         0.0000
      6 C6          4.8850   -4.1180    0.6949 C.2       1 <0>         0.0000
      7 C7          3.4644   -4.1762    0.8686 C.2       1 <0>         0.0000
      8 C8          6.4332   -1.3844   -1.4522 C.ar      1 <0>         0.0000
      9 C9          6.3388   -2.6908   -0.9077 C.ar      1 <0>         0.0000
     10 C10         5.1172   -3.2116   -0.3122 C.2       1 <0>         0.0000
     11 C11         2.9200   -3.3163   -0.0493 C.2       1 <0>         0.0000
     12 C12         1.0444    1.2684   -0.6742 C.3       1 <0>         0.0000
     13 C13         0.4200    0.3592   -1.7663 C.3       1 <0>         0.0000
     14 C14        -0.4433    0.5415    1.2786 C.3       1 <0>         0.0000
     15 C15         1.6928   -0.7544    0.6807 C.3       1 <0>         0.0000
     16 C16        -1.1542   -1.1107   -0.3878 C.3       1 <0>         0.0000
     17 C17         0.9886    0.6120    0.7156 C.3       1 <0>         0.0000
     18 C18         0.1515   -1.0536   -1.2235 C.3       1 <0>         0.0000
     19 C19        -2.7797    0.1099    0.9108 C.3       1 <0>         0.0000
     20 C20         1.5123   -2.9390   -0.3920 C.3       1 <0>         0.0000
     21 N1          4.5363    0.3917   -1.3472 N.1       1 <0>         0.0000
     22 N2         -1.4568    0.1394    0.3048 N.3       1 <0>         0.0000
     23 N3          1.3608   -1.5065   -0.5331 N.3       1 <0>         0.0000
     24 O1          3.9191   -2.7285   -0.7736 O.3       1 <0>         0.0000
     25 H1          9.6902   -1.4067   -2.4810 H         1 <0>         0.0000
     26 H2          9.5528   -3.6984   -1.4999 H         1 <0>         0.0000
     27 H3          7.6859    0.0665   -2.4304 H         1 <0>         0.0000
     28 H4          7.4262   -4.5120   -0.5444 H         1 <0>         0.0000
     29 H5          5.6370   -4.6400    1.2717 H         1 <0>         0.0000
     30 H6          2.9154   -4.7663    1.5905 H         1 <0>         0.0000
     31 H7          2.0932    1.4598   -0.9154 H         1 <0>         0.0000
     32 H8          0.5291    2.2341   -0.6432 H         1 <0>         0.0000
     33 H9         -0.5157    0.7858   -2.1378 H         1 <0>         0.0000
     34 H10         1.1129    0.2707   -2.6079 H         1 <0>         0.0000
     35 H11        -0.4455   -0.1258    2.1650 H         1 <0>         0.0000
     36 H12        -0.7273    1.5386    1.6371 H         1 <0>         0.0000
     37 H13         2.7780   -0.6018    0.7093 H         1 <0>         0.0000
     38 H14         1.4224   -1.3231    1.5887 H         1 <0>         0.0000
     39 H15        -1.9908   -1.3068   -1.0687 H         1 <0>         0.0000
     40 H16        -1.1093   -1.9724    0.3094 H         1 <0>         0.0000
     41 H17         1.5559    1.2312    1.4205 H         1 <0>         0.0000
     42 H18         0.0134   -1.7344   -2.0711 H         1 <0>         0.0000
     43 H19        -3.5357   -0.1010    0.1471 H         1 <0>         0.0000
     44 H20        -3.0069    1.0866    1.3514 H         1 <0>         0.0000
     45 H21        -2.8768   -0.6531    1.7085 H         1 <0>         0.0000
     46 H22         1.2331   -3.4079   -1.3447 H         1 <0>         0.0000
     47 H23         0.8673   -3.3899    0.3883 H         1 <0>         0.0000
@<TRIPOS>BOND
     1    1    8 1
     2    1   21 3
     3    2    3 ar
     4    2    4 ar
     5    2   25 1
     6    3    5 ar
     7    3   26 1
     8    4    8 ar
     9    4   27 1
    10    5    9 ar
    11    5   28 1
    12    6    7 1
    13    6   10 2
    14    6   29 1
    15    7   11 2
    16    7   30 1
    17    8    9 ar
    18    9   10 1
    19   10   24 1
    20   11   20 1
    21   11   24 1
    22   12   13 1
    23   12   17 1
    24   12   31 1
    25   12   32 1
    26   13   18 1
    27   13   33 1
    28   13   34 1
    29   14   17 1
    30   14   22 1
    31   14   35 1
    32   14   36 1
    33   15   17 1
    34   15   23 1
    35   15   37 1
    36   15   38 1
    37   16   18 1
    38   16   22 1
    39   16   39 1
    40   16   40 1
    41   17   41 1
    42   18   23 1
    43   18   42 1
    44   19   22 1
    45   19   43 1
    46   19   44 1
    47   19   45 1
    48   20   23 1
    49   20   46 1
    50   20   47 1
