@<TRIPOS>MOLECULE
*****
   16    16     0     0     0
SMALL
NO_CHARGES

@<TRIPOS>ATOM
      1 C1          2.4475   -1.3095    0.2502 C.ar      1 <0>         0.0000
      2 C2          1.8453   -1.2752    2.9608 C.ar      1 <0>         0.0000
      3 C3          1.1999   -0.8174    0.6557 C.ar      1 <0>         0.0000
      4 C4          0.9140   -0.8086    2.0337 C.ar      1 <0>         0.0000
      5 C5          3.0825   -1.7604    2.5318 C.ar      1 <0>         0.0000
      6 C6          3.3883   -1.7785    1.1624 C.ar      1 <0>         0.0000
      7 C7          0.2810   -0.3412   -0.4439 C.2       1 <0>         0.0000
      8 O1          0.6132   -0.3897   -1.6100 O.2       1 <0>         0.0000
      9 O2         -0.3097   -0.3288    2.4494 O.3       1 <0>         0.0000
     10 O3         -0.9309    0.1457   -0.0990 O.3       1 <0>         0.0000
     11 Cl1         4.2019   -2.3282    3.7363 Cl        1 <0>         0.0000
     12 Br1         5.0598   -2.4289    0.5165 Br        1 <0>         0.0000
     13 H1          2.6609   -1.3133   -0.8131 H         1 <0>         0.0000
     14 H2          1.6189   -1.2666    4.0238 H         1 <0>         0.0000
     15 H3         -0.3862   -0.3648    3.4166 H         1 <0>         0.0000
     16 H4         -1.0563    0.1213    0.8698 H         1 <0>         0.0000
@<TRIPOS>BOND
     1    1    3 ar
     2    1    6 ar
     3    1   13 1
     4    2    4 ar
     5    2    5 ar
     6    2   14 1
     7    3    4 ar
     8    3    7 1
     9    4    9 1
    10    5    6 ar
    11    5   11 1
    12    6   12 1
    13    7    8 2
    14    7   10 1
    15    9   15 1
    16   10   16 1
