@<TRIPOS>MOLECULE
*****
   39    41     0     0     0
SMALL
NO_CHARGES

@<TRIPOS>ATOM
      1 C1          2.5701   -5.3684   -1.7578 C.ar      1 <0>         0.0000
      2 C2          2.3974   -4.0529   -1.3024 C.ar      1 <0>         0.0000
      3 C3          1.7214   -6.3946   -1.3278 C.ar      1 <0>         0.0000
      4 C4          1.3706   -3.7303   -0.4049 C.ar      1 <0>         0.0000
      5 C5         -5.5419   -8.6279    0.1768 C.2       1 <0>         0.0000
      6 C6          0.6976   -6.0776   -0.4376 C.ar      1 <0>         0.0000
      7 C7         -4.1948   -8.5281    0.6598 C.2       1 <0>         0.0000
      8 C8          0.5406   -4.7649    0.0021 C.ar      1 <0>         0.0000
      9 C9         -6.0526   -9.8340    0.5909 C.2       1 <0>         0.0000
     10 C10        -3.9064   -9.7155    1.3426 C.2       1 <0>         0.0000
     11 C11        -0.3080   -7.0214    0.1270 C.2       1 <0>         0.0000
     12 C12        -3.3362   -7.3691    0.4130 C.2       1 <0>         0.0000
     13 C13        -7.4145  -10.4204    0.3910 C.3       1 <0>         0.0000
     14 C14        -2.6250  -10.2495    1.9121 C.3       1 <0>         0.0000
     15 C15        -5.1447  -11.8413    1.8324 C.3       1 <0>         0.0000
     16 C16        -2.3506   -6.9514    1.5267 C.3       1 <0>         0.0000
     17 N1         -5.0440  -10.4914    1.2993 N.pl3     1 <0>         0.0000
     18 N2         -1.1559   -6.3338    0.9778 N.am      1 <0>         0.0000
     19 O1         -0.3938   -8.2220   -0.0939 O.2       1 <0>         0.0000
     20 O2         -3.4432   -6.6566   -0.5768 O.2       1 <0>         0.0000
     21 O3         -0.3634   -4.3900    2.5070 O.2       1 <0>         0.0000
     22 O4         -1.9350   -3.8556    0.6133 O.2       1 <0>         0.0000
     23 S1         -0.8302   -4.6458    1.1440 S.o2      1 <0>         0.0000
     24 H1          3.3735   -5.5904   -2.4544 H         1 <0>         0.0000
     25 H2          3.0667   -3.2711   -1.6500 H         1 <0>         0.0000
     26 H3          1.8379   -7.4183   -1.6706 H         1 <0>         0.0000
     27 H4          1.2298   -2.7146   -0.0482 H         1 <0>         0.0000
     28 H5         -6.0625   -7.8667   -0.3884 H         1 <0>         0.0000
     29 H6         -7.3837  -11.3803   -0.1386 H         1 <0>         0.0000
     30 H7         -7.9453  -10.5791    1.3382 H         1 <0>         0.0000
     31 H8         -8.0135   -9.7321   -0.2095 H         1 <0>         0.0000
     32 H9         -2.5624  -10.1214    3.0009 H         1 <0>         0.0000
     33 H10        -2.5210  -11.3193    1.7053 H         1 <0>         0.0000
     34 H11        -1.7677   -9.7558    1.4525 H         1 <0>         0.0000
     35 H12        -4.6594  -12.5701    1.1728 H         1 <0>         0.0000
     36 H13        -4.6819  -11.8965    2.8202 H         1 <0>         0.0000
     37 H14        -6.1949  -12.1141    1.9344 H         1 <0>         0.0000
     38 H15        -2.0678   -7.7728    2.1831 H         1 <0>         0.0000
     39 H16        -2.8735   -6.2111    2.1405 H         1 <0>         0.0000
@<TRIPOS>BOND
     1    1    2 ar
     2    1    3 ar
     3    1   24 1
     4    2    4 ar
     5    2   25 1
     6    3    6 ar
     7    3   26 1
     8    4    8 ar
     9    4   27 1
    10    5    7 1
    11    5    9 2
    12    5   28 1
    13    6    8 ar
    14    6   11 1
    15    7   10 2
    16    7   12 1
    17    8   23 1
    18    9   13 1
    19    9   17 1
    20   10   14 1
    21   10   17 1
    22   11   18 am
    23   11   19 2
    24   12   16 1
    25   12   20 2
    26   13   29 1
    27   13   30 1
    28   13   31 1
    29   14   32 1
    30   14   33 1
    31   14   34 1
    32   15   17 1
    33   15   35 1
    34   15   36 1
    35   15   37 1
    36   16   18 1
    37   16   38 1
    38   16   39 1
    39   18   23 1
    40   21   23 2
    41   22   23 2
