@<TRIPOS>MOLECULE
*****
   25    26     0     0     0
SMALL
NO_CHARGES

@<TRIPOS>ATOM
      1 C1          6.4988   -0.3031    3.1971 C.ar      1 <0>         0.0000
      2 C2          6.0960    0.7790    3.9840 C.ar      1 <0>         0.0000
      3 C3          5.7952   -0.5736    2.0241 C.ar      1 <0>         0.0000
      4 C4          0.9157   -0.9602    0.6534 C.ar      1 <0>         0.0000
      5 C5          1.0684    0.9161    2.1419 C.ar      1 <0>         0.0000
      6 C6          5.0054    1.5478    3.5602 C.ar      1 <0>         0.0000
      7 C7         -0.1242   -1.4417    1.4455 C.ar      1 <0>         0.0000
      8 C8          1.5291    0.2528    1.0023 C.ar      1 <0>         0.0000
      9 C9          4.7154    0.2530    1.6877 C.ar      1 <0>         0.0000
     10 C10         0.0141    0.3328    2.8507 C.ar      1 <0>         0.0000
     11 C11         3.9333   -0.0283    0.4335 C.2       1 <0>         0.0000
     12 C12         2.6782    0.8031    0.1813 C.3       1 <0>         0.0000
     13 N1          4.3245    1.2985    2.4372 N.ar      1 <0>         0.0000
     14 N2         -0.5793   -0.8032    2.5385 N.ar      1 <0>         0.0000
     15 O1          4.2738   -0.9185   -0.3329 O.2       1 <0>         0.0000
     16 Br1        -0.6375    1.2518    4.4202 Br        1 <0>         0.0000
     17 H1          7.3413   -0.9222    3.4937 H         1 <0>         0.0000
     18 H2          6.6107    1.0277    4.9076 H         1 <0>         0.0000
     19 H3          6.0531   -1.3992    1.3690 H         1 <0>         0.0000
     20 H4          1.2472   -1.5195   -0.2169 H         1 <0>         0.0000
     21 H5          1.5227    1.8425    2.4721 H         1 <0>         0.0000
     22 H6          4.6670    2.3972    4.1510 H         1 <0>         0.0000
     23 H7         -0.6213   -2.3784    1.2014 H         1 <0>         0.0000
     24 H8          2.4524    0.7230   -0.8842 H         1 <0>         0.0000
     25 H9          2.8599    1.8451    0.4469 H         1 <0>         0.0000
@<TRIPOS>BOND
     1    1    2 ar
     2    1    3 ar
     3    1   17 1
     4    2    6 ar
     5    2   18 1
     6    3    9 ar
     7    3   19 1
     8    4    7 ar
     9    4    8 ar
    10    4   20 1
    11    5    8 ar
    12    5   10 ar
    13    5   21 1
    14    6   13 ar
    15    6   22 1
    16    7   14 ar
    17    7   23 1
    18    8   12 1
    19    9   11 1
    20    9   13 ar
    21   10   14 ar
    22   10   16 1
    23   11   12 1
    24   11   15 2
    25   12   24 1
    26   12   25 1
