@<TRIPOS>MOLECULE
*****
   38    40     0     0     0
SMALL
NO_CHARGES

@<TRIPOS>ATOM
      1 C1         -3.6990    1.7415   -9.6865 C.ar      1 <0>         0.0000
      2 C2         -4.2639    3.0205   -9.7266 C.ar      1 <0>         0.0000
      3 C3         -2.8262    1.4035   -8.6524 C.ar      1 <0>         0.0000
      4 C4         -3.9467    3.9636   -8.7467 C.ar      1 <0>         0.0000
      5 C5         -0.6850    1.3901   -4.6812 C.2       1 <0>         0.0000
      6 C6         -2.5079    2.3372   -7.6619 C.ar      1 <0>         0.0000
      7 C7         -3.0605    3.6250   -7.7213 C.ar      1 <0>         0.0000
      8 C8          0.2798    1.4241   -5.7420 C.2       1 <0>         0.0000
      9 C9         -1.8734    1.7418   -5.3087 C.2       1 <0>         0.0000
     10 C10        -0.5240    1.0705   -3.2735 C.2       1 <0>         0.0000
     11 C11        -0.1662    0.7818   -0.4570 C.3       1 <0>         0.0000
     12 C12         2.1737    0.6301   -1.0390 C.3       1 <0>         0.0000
     13 C13         0.0475    2.2473   -0.0648 C.3       1 <0>         0.0000
     14 C14         2.3417    2.0926   -0.6212 C.3       1 <0>         0.0000
     15 C15         1.7451    1.1367   -5.6647 C.3       1 <0>         0.0000
     16 N1         -0.2811    1.7648   -6.9011 N.2       1 <0>         0.0000
     17 N2          0.6355    0.7633   -2.7958 N.2       1 <0>         0.0000
     18 N3         -1.6089    1.9663   -6.6277 N.pl3     1 <0>         0.0000
     19 N4          0.7993    0.3716   -1.4906 N.pl3     1 <0>         0.0000
     20 O1          1.3889    2.4526    0.3843 O.3       1 <0>         0.0000
     21 Cl1        -2.6271    4.8311   -6.5333 Cl        1 <0>         0.0000
     22 Cl2        -3.4670    1.8587   -4.6606 Cl        1 <0>         0.0000
     23 H1         -3.9407    1.0106  -10.4526 H         1 <0>         0.0000
     24 H2         -4.9496    3.2915  -10.5246 H         1 <0>         0.0000
     25 H3         -2.3749    0.4179   -8.5939 H         1 <0>         0.0000
     26 H4         -4.3691    4.9628   -8.7783 H         1 <0>         0.0000
     27 H5         -1.4362    1.1015   -2.6731 H         1 <0>         0.0000
     28 H6          0.0158    0.1458    0.4151 H         1 <0>         0.0000
     29 H7         -1.1903    0.5910   -0.7842 H         1 <0>         0.0000
     30 H8          2.8529    0.3757   -1.8553 H         1 <0>         0.0000
     31 H9          2.3798   -0.0247   -0.1854 H         1 <0>         0.0000
     32 H10        -0.1683    2.9084   -0.9169 H         1 <0>         0.0000
     33 H11        -0.6023    2.5290    0.7684 H         1 <0>         0.0000
     34 H12         3.3284    2.2691   -0.1841 H         1 <0>         0.0000
     35 H13         2.2221    2.7434   -1.5009 H         1 <0>         0.0000
     36 H14         1.9243    0.1303   -5.2751 H         1 <0>         0.0000
     37 H15         2.1892    1.2310   -6.6586 H         1 <0>         0.0000
     38 H16         2.2404    1.8298   -4.9779 H         1 <0>         0.0000
@<TRIPOS>BOND
     1    1    2 ar
     2    1    3 ar
     3    1   23 1
     4    2    4 ar
     5    2   24 1
     6    3    6 ar
     7    3   25 1
     8    4    7 ar
     9    4   26 1
    10    5    8 1
    11    5    9 2
    12    5   10 1
    13    6    7 ar
    14    6   18 1
    15    7   21 1
    16    8   15 1
    17    8   16 2
    18    9   18 1
    19    9   22 1
    20   10   17 2
    21   10   27 1
    22   11   13 1
    23   11   19 1
    24   11   28 1
    25   11   29 1
    26   12   14 1
    27   12   19 1
    28   12   30 1
    29   12   31 1
    30   13   20 1
    31   13   32 1
    32   13   33 1
    33   14   20 1
    34   14   34 1
    35   14   35 1
    36   15   36 1
    37   15   37 1
    38   15   38 1
    39   16   18 1
    40   17   19 1
