@<TRIPOS>MOLECULE
*****
   36    39     0     0     0
SMALL
NO_CHARGES

@<TRIPOS>ATOM
      1 C1         -4.4122    3.3348   -0.6890 C.ar      1 <0>         0.0000
      2 C2         -4.7018    1.5802   -5.1905 C.ar      1 <0>         0.0000
      3 C3         -0.8719   -2.8626   -5.5402 C.2       1 <0>         0.0000
      4 C4         -4.8333    3.4879   -1.9912 C.ar      1 <0>         0.0000
      5 C5         -4.9853    2.5873   -4.2958 C.ar      1 <0>         0.0000
      6 C6         -3.7140    2.1691   -0.3025 C.ar      1 <0>         0.0000
      7 C7         -1.2639   -2.0984   -4.4072 C.2       1 <0>         0.0000
      8 C8         -3.9756    0.4589   -4.7231 C.ar      1 <0>         0.0000
      9 C9         -0.5156   -4.1385   -5.0992 C.2       1 <0>         0.0000
     10 C10        -4.5596    2.4752   -2.9469 C.ar      1 <0>         0.0000
     11 C11        -3.4155    1.1515   -1.1954 C.ar      1 <0>         0.0000
     12 C12        -3.8364    1.2966   -2.5611 C.ar      1 <0>         0.0000
     13 C13        -1.1337   -2.9341   -3.2956 C.2       1 <0>         0.0000
     14 C14        -1.2527   -2.9891   -1.8472 C.2       1 <0>         0.0000
     15 C15        -2.6846   -0.0340   -0.5831 C.2       1 <0>         0.0000
     16 C16        -0.6607   -4.3256   -1.3996 C.3       1 <0>         0.0000
     17 C17        -0.5214   -5.1639   -2.6950 C.3       1 <0>         0.0000
     18 N1         -3.5589    0.3208   -3.4789 N.ar      1 <0>         0.0000
     19 N2         -1.7214   -2.1630   -0.9776 N.2       1 <0>         0.0000
     20 N3         -0.6720   -4.1571   -3.7460 N.pl3     1 <0>         0.0000
     21 N4         -2.2677   -1.0030   -1.4617 N.am      1 <0>         0.0000
     22 O1         -2.4785   -0.0766    0.6264 O.2       1 <0>         0.0000
     23 H1         -4.6178    4.1046    0.0497 H         1 <0>         0.0000
     24 H2         -5.0160    1.6305   -6.2286 H         1 <0>         0.0000
     25 H3         -0.8374   -2.5232   -6.5679 H         1 <0>         0.0000
     26 H4         -5.3781    4.3761   -2.3030 H         1 <0>         0.0000
     27 H5         -5.5355    3.4729   -4.6059 H         1 <0>         0.0000
     28 H6         -3.3935    2.0350    0.7255 H         1 <0>         0.0000
     29 H7         -1.5719   -1.0630   -4.3988 H         1 <0>         0.0000
     30 H8         -3.7293   -0.3548   -5.4047 H         1 <0>         0.0000
     31 H9         -0.1674   -5.0034   -5.6478 H         1 <0>         0.0000
     32 H10         0.3197   -4.1504   -0.9456 H         1 <0>         0.0000
     33 H11        -1.2914   -4.8091   -0.6519 H         1 <0>         0.0000
     34 H12         0.4460   -5.6662   -2.7778 H         1 <0>         0.0000
     35 H13        -1.3118   -5.9173   -2.7820 H         1 <0>         0.0000
     36 H14        -2.5543   -0.9010   -2.4414 H         1 <0>         0.0000
@<TRIPOS>BOND
     1    1    4 ar
     2    1    6 ar
     3    1   23 1
     4    2    5 ar
     5    2    8 ar
     6    2   24 1
     7    3    7 1
     8    3    9 2
     9    3   25 1
    10    4   10 ar
    11    4   26 1
    12    5   10 ar
    13    5   27 1
    14    6   11 ar
    15    6   28 1
    16    7   13 2
    17    7   29 1
    18    8   18 ar
    19    8   30 1
    20    9   20 1
    21    9   31 1
    22   10   12 ar
    23   11   12 ar
    24   11   15 1
    25   12   18 ar
    26   13   14 1
    27   13   20 1
    28   14   16 1
    29   14   19 2
    30   15   21 am
    31   15   22 2
    32   16   17 1
    33   16   32 1
    34   16   33 1
    35   17   20 1
    36   17   34 1
    37   17   35 1
    38   19   21 1
    39   21   36 1
