@<TRIPOS>MOLECULE
*****
   28    29     0     0     0
SMALL
NO_CHARGES

@<TRIPOS>ATOM
      1 C1          2.8577    0.2195    1.4500 C.2       1 <0>         0.0000
      2 C2          3.8800   -0.7154    1.8465 C.2       1 <0>         0.0000
      3 C3          2.2665   -0.3035    0.3380 C.2       1 <0>         0.0000
      4 C4          3.8458   -1.7452    0.9494 C.2       1 <0>         0.0000
      5 C5         -0.5569    0.6873    1.0752 C.3       1 <0>         0.0000
      6 C6         -1.4073   -0.4358    0.4825 C.3       1 <0>         0.0000
      7 C7          0.2716   -0.9544   -1.0849 C.3       1 <0>         0.0000
      8 C8          1.1766    0.1845   -0.5745 C.3       1 <0>         0.0000
      9 C9          5.4452   -3.0475   -0.5229 C.3       1 <0>         0.0000
     10 C10         4.6319   -3.0024    0.7835 C.3       1 <0>         0.0000
     11 N1          0.4108    1.2420    0.1126 N.3       1 <0>         0.0000
     12 O1          2.8604   -1.5020    0.0172 O.3       1 <0>         0.0000
     13 O2         -0.5802   -1.4630   -0.0640 O.3       1 <0>         0.0000
     14 H1          2.5918    1.1570    1.9180 H         1 <0>         0.0000
     15 H2          4.5512   -0.6345    2.6920 H         1 <0>         0.0000
     16 H3         -1.1941    1.5027    1.4352 H         1 <0>         0.0000
     17 H4          0.0000    0.2967    1.9321 H         1 <0>         0.0000
     18 H5         -2.0265   -0.9144    1.2472 H         1 <0>         0.0000
     19 H6         -2.0715   -0.0372   -0.3045 H         1 <0>         0.0000
     20 H7         -0.3373   -0.5668   -1.9194 H         1 <0>         0.0000
     21 H8          0.8619   -1.7992   -1.4452 H         1 <0>         0.0000
     22 H9          1.6422    0.6466   -1.4566 H         1 <0>         0.0000
     23 H10         4.7868   -2.9693   -1.3930 H         1 <0>         0.0000
     24 H11         6.0012   -3.9879   -0.5998 H         1 <0>         0.0000
     25 H12         6.1606   -2.2199   -0.5652 H         1 <0>         0.0000
     26 H13         5.3005   -3.0914    1.6457 H         1 <0>         0.0000
     27 H14         3.9539   -3.8648    0.8198 H         1 <0>         0.0000
     28 H15        -0.0912    1.7802   -0.5917 H         1 <0>         0.0000
@<TRIPOS>BOND
     1    1    2 1
     2    1    3 2
     3    1   14 1
     4    2    4 2
     5    2   15 1
     6    3    8 1
     7    3   12 1
     8    4   10 1
     9    4   12 1
    10    5    6 1
    11    5   11 1
    12    5   16 1
    13    5   17 1
    14    6   13 1
    15    6   18 1
    16    6   19 1
    17    7    8 1
    18    7   13 1
    19    7   20 1
    20    7   21 1
    21    8   11 1
    22    8   22 1
    23    9   10 1
    24    9   23 1
    25    9   24 1
    26    9   25 1
    27   10   26 1
    28   10   27 1
    29   11   28 1
