@<TRIPOS>MOLECULE
*****
   38    40     0     0     0
SMALL
NO_CHARGES

@<TRIPOS>ATOM
      1 C1         -1.2778   -3.0307   -6.2423 C.2       1 <0>         0.0000
      2 C2          1.0136    0.7086   -1.2158 C.2       1 <0>         0.0000
      3 C3         -0.1520   -0.0483   -1.1717 C.2       1 <0>         0.0000
      4 C4          0.5291   -2.4861   -5.0730 C.2       1 <0>         0.0000
      5 C5          0.0392   -1.2156   -5.2704 C.2       1 <0>         0.0000
      6 C6          0.5717    0.2089   -3.2727 C.2       1 <0>         0.0000
      7 C7          1.7818    1.3783   -0.1339 C.2       1 <0>         0.0000
      8 C8         -1.0452   -0.5870   -0.0945 C.3       1 <0>         0.0000
      9 C9          0.6609   -0.0307    1.6849 C.3       1 <0>         0.0000
     10 C10        -0.8419    0.0047    1.3141 C.3       1 <0>         0.0000
     11 C11         1.7768   -2.8376   -4.3153 C.3       1 <0>         0.0000
     12 C12        -1.5921   -0.8944    2.3130 C.3       1 <0>         0.0000
     13 C13        -1.3959    1.4357    1.3915 C.3       1 <0>         0.0000
     14 C14         0.6012    0.0916   -4.7711 C.3       1 <0>         0.0000
     15 N1         -0.2287   -3.5021   -5.6319 N.2       1 <0>         0.0000
     16 N2          1.4407    0.8515   -2.5317 N.2       1 <0>         0.0000
     17 N3         -0.4171   -0.3502   -2.4943 N.pl3     1 <0>         0.0000
     18 N4          1.4614    1.0708    1.1712 N.am      1 <0>         0.0000
     19 O1          2.6547    2.2104   -0.3767 O.2       1 <0>         0.0000
     20 S1         -1.4404   -1.2954   -6.1918 S.3       1 <0>         0.0000
     21 H1         -2.0088   -3.6448   -6.7578 H         1 <0>         0.0000
     22 H2         -2.0925   -0.4381   -0.3889 H         1 <0>         0.0000
     23 H3         -0.8987   -1.6752   -0.0394 H         1 <0>         0.0000
     24 H4          0.7469    0.0184    2.7741 H         1 <0>         0.0000
     25 H5          1.0810   -0.9997    1.3784 H         1 <0>         0.0000
     26 H6          1.5380   -3.5044   -3.4801 H         1 <0>         0.0000
     27 H7          2.4781   -3.3699   -4.9660 H         1 <0>         0.0000
     28 H8          2.2733   -1.9515   -3.9156 H         1 <0>         0.0000
     29 H9         -1.5728   -0.4616    3.3189 H         1 <0>         0.0000
     30 H10        -1.1439   -1.8937    2.3667 H         1 <0>         0.0000
     31 H11        -2.6415   -1.0147    2.0220 H         1 <0>         0.0000
     32 H12        -1.1874    1.8805    2.3706 H         1 <0>         0.0000
     33 H13        -2.4824    1.4292    1.2498 H         1 <0>         0.0000
     34 H14        -0.9561    2.0861    0.6324 H         1 <0>         0.0000
     35 H15         1.6425    0.2096   -5.0834 H         1 <0>         0.0000
     36 H16         0.0541    0.9312   -5.2147 H         1 <0>         0.0000
     37 H17        -1.1767   -0.9310   -2.8298 H         1 <0>         0.0000
     38 H18         2.0487    1.5696    1.8281 H         1 <0>         0.0000
@<TRIPOS>BOND
     1    1   15 2
     2    1   20 1
     3    1   21 1
     4    2    3 2
     5    2    7 1
     6    2   16 1
     7    3    8 1
     8    3   17 1
     9    4    5 2
    10    4   11 1
    11    4   15 1
    12    5   14 1
    13    5   20 1
    14    6   14 1
    15    6   16 2
    16    6   17 1
    17    7   18 am
    18    7   19 2
    19    8   10 1
    20    8   22 1
    21    8   23 1
    22    9   10 1
    23    9   18 1
    24    9   24 1
    25    9   25 1
    26   10   12 1
    27   10   13 1
    28   11   26 1
    29   11   27 1
    30   11   28 1
    31   12   29 1
    32   12   30 1
    33   12   31 1
    34   13   32 1
    35   13   33 1
    36   13   34 1
    37   14   35 1
    38   14   36 1
    39   17   37 1
    40   18   38 1
