@<TRIPOS>MOLECULE
*****
   39    41     0     0     0
SMALL
NO_CHARGES

@<TRIPOS>ATOM
      1 C1         -4.2143   -1.2971    4.0892 C.ar      1 <0>         0.0000
      2 C2         -5.1454   -2.0384    4.8325 C.ar      1 <0>         0.0000
      3 C3         -3.4487   -1.9032    3.0870 C.ar      1 <0>         0.0000
      4 C4         -5.3341   -3.4056    4.5912 C.ar      1 <0>         0.0000
      5 C5         -4.3191   -9.0965    1.6085 C.2       1 <0>         0.0000
      6 C6         -3.6333   -3.2630    2.8443 C.ar      1 <0>         0.0000
      7 C7         -4.4232   -8.3493    0.3804 C.2       1 <0>         0.0000
      8 C8         -4.5590   -3.9824    3.5946 C.ar      1 <0>         0.0000
      9 C9         -5.1146  -10.2083    1.4965 C.2       1 <0>         0.0000
     10 C10        -5.3031   -9.0550   -0.4541 C.2       1 <0>         0.0000
     11 C11        -2.9046   -4.0844    1.8330 C.2       1 <0>         0.0000
     12 C12        -3.7939   -7.0752    0.0683 C.2       1 <0>         0.0000
     13 C13        -5.3927  -11.2979    2.4820 C.3       1 <0>         0.0000
     14 C14        -5.7953   -8.7433   -1.8306 C.3       1 <0>         0.0000
     15 C15        -6.6654  -11.1478   -0.2627 C.3       1 <0>         0.0000
     16 C16        -2.8125   -6.4917    1.1094 C.3       1 <0>         0.0000
     17 N1         -5.6988  -10.1772    0.2262 N.pl3     1 <0>         0.0000
     18 N2         -3.4134   -5.3817    1.8480 N.am      1 <0>         0.0000
     19 O1         -1.9915   -3.7042    1.1206 O.2       1 <0>         0.0000
     20 O2         -3.9848   -6.4243   -0.9599 O.2       1 <0>         0.0000
     21 O3         -4.0199   -6.5942    4.0570 O.2       1 <0>         0.0000
     22 O4         -5.8846   -6.0191    2.4593 O.2       1 <0>         0.0000
     23 S1         -4.5981   -5.6861    3.0629 S.o2      1 <0>         0.0000
     24 H1         -4.0889   -0.2382    4.2962 H         1 <0>         0.0000
     25 H2         -5.7294   -1.5476    5.6058 H         1 <0>         0.0000
     26 H3         -2.7236   -1.3467    2.5008 H         1 <0>         0.0000
     27 H4         -6.0545   -3.9862    5.1593 H         1 <0>         0.0000
     28 H5         -3.7657   -8.8280    2.4979 H         1 <0>         0.0000
     29 H6         -6.4610  -11.3839    2.7148 H         1 <0>         0.0000
     30 H7         -5.0486  -12.2793    2.1316 H         1 <0>         0.0000
     31 H8         -4.8684  -11.0782    3.4147 H         1 <0>         0.0000
     32 H9         -5.4869   -9.5094   -2.5536 H         1 <0>         0.0000
     33 H10        -6.8902   -8.6833   -1.8589 H         1 <0>         0.0000
     34 H11        -5.3876   -7.7848   -2.1467 H         1 <0>         0.0000
     35 H12        -7.6894  -10.8481   -0.0117 H         1 <0>         0.0000
     36 H13        -6.5841  -11.2432   -1.3463 H         1 <0>         0.0000
     37 H14        -6.4672  -12.1234    0.1831 H         1 <0>         0.0000
     38 H15        -1.9724   -6.0569    0.5645 H         1 <0>         0.0000
     39 H16        -2.4386   -7.2336    1.8181 H         1 <0>         0.0000
@<TRIPOS>BOND
     1    1    2 ar
     2    1    3 ar
     3    1   24 1
     4    2    4 ar
     5    2   25 1
     6    3    6 ar
     7    3   26 1
     8    4    8 ar
     9    4   27 1
    10    5    7 1
    11    5    9 2
    12    5   28 1
    13    6    8 ar
    14    6   11 1
    15    7   10 2
    16    7   12 1
    17    8   23 1
    18    9   13 1
    19    9   17 1
    20   10   14 1
    21   10   17 1
    22   11   18 am
    23   11   19 2
    24   12   16 1
    25   12   20 2
    26   13   29 1
    27   13   30 1
    28   13   31 1
    29   14   32 1
    30   14   33 1
    31   14   34 1
    32   15   17 1
    33   15   35 1
    34   15   36 1
    35   15   37 1
    36   16   18 1
    37   16   38 1
    38   16   39 1
    39   18   23 1
    40   21   23 2
    41   22   23 2
