@<TRIPOS>MOLECULE
*****
   21    22     0     0     0
SMALL
NO_CHARGES

@<TRIPOS>ATOM
      1 C1          0.1528    2.3219    1.5154 C.ar      1 <0>         0.0000
      2 C2         -1.4634    3.9656    2.2801 C.ar      1 <0>         0.0000
      3 C3         -0.8706    1.4358    1.1705 C.ar      1 <0>         0.0000
      4 C4         -0.1481    3.5698    2.0610 C.ar      1 <0>         0.0000
      5 C5         -2.4940    3.0893    1.9292 C.ar      1 <0>         0.0000
      6 C6         -2.2039    1.8366    1.3721 C.ar      1 <0>         0.0000
      7 C7          0.8897   -0.4512    0.4920 C.3       1 <0>         0.0000
      8 C8          0.2872   -1.8187    0.8953 C.3       1 <0>         0.0000
      9 C9         -0.5628    0.0828    0.5693 C.3       1 <0>         0.0000
     10 N1         -0.9103   -1.0996    1.4107 N.3       1 <0>         0.0000
     11 Cl1         1.1556    4.6639    2.4834 Cl        1 <0>         0.0000
     12 Cl2        -4.1387    3.6090    2.1996 Cl        1 <0>         0.0000
     13 Cl3        -3.5059    0.7648    0.9037 Cl        1 <0>         0.0000
     14 H1          1.1885    2.0450    1.3579 H         1 <0>         0.0000
     15 H2         -1.6940    4.9335    2.7105 H         1 <0>         0.0000
     16 H3          1.5305   -0.0537    1.2812 H         1 <0>         0.0000
     17 H4          1.3970   -0.3756   -0.4712 H         1 <0>         0.0000
     18 H5          0.0869   -2.4534    0.0205 H         1 <0>         0.0000
     19 H6          0.8198   -2.4035    1.6516 H         1 <0>         0.0000
     20 H7         -1.0290    0.0355   -0.4268 H         1 <0>         0.0000
     21 H8         -1.8078   -1.5238    1.1864 H         1 <0>         0.0000
@<TRIPOS>BOND
     1    1    3 ar
     2    1    4 ar
     3    1   14 1
     4    2    4 ar
     5    2    5 ar
     6    2   15 1
     7    3    6 ar
     8    3    9 1
     9    4   11 1
    10    5    6 ar
    11    5   12 1
    12    6   13 1
    13    7    8 1
    14    7    9 1
    15    7   16 1
    16    7   17 1
    17    8   10 1
    18    8   18 1
    19    8   19 1
    20    9   10 1
    21    9   20 1
    22   10   21 1
