@<TRIPOS>MOLECULE
*****
   23    23     0     0     0
SMALL
NO_CHARGES

@<TRIPOS>ATOM
      1 C1          2.1491   -1.1710   -0.1195 C.ar      1 <0>         0.0000
      2 C2          0.9461   -0.6819    0.3738 C.ar      1 <0>         0.0000
      3 C3          2.9387   -1.6371    2.1804 C.ar      1 <0>         0.0000
      4 C4          3.1142   -1.6056    0.7906 C.ar      1 <0>         0.0000
      5 C5          1.7141   -1.1212    2.6607 C.ar      1 <0>         0.0000
      6 C6          0.7456   -0.6558    1.7513 C.ar      1 <0>         0.0000
      7 C7          3.4605   -3.1594    4.1915 C.3       1 <0>         0.0000
      8 C8          4.0058   -2.2136    3.1123 C.3       1 <0>         0.0000
      9 N1          4.7326   -1.0952    3.7344 N.3       1 <0>         0.0000
     10 N2          4.4057   -1.9964    0.1919 N.pl3     1 <0>         0.0000
     11 O1          5.4364   -1.5204    0.6850 O.3       1 <0>         0.0000
     12 O2          4.3757   -2.7347   -0.7961 O.2       1 <0>         0.0000
     13 O3          1.4946   -1.0941    3.9989 O.3       1 <0>         0.0000
     14 Cl1        -0.7709   -0.0303    2.3885 Cl        1 <0>         0.0000
     15 H1          2.3524   -1.2016   -1.1835 H         1 <0>         0.0000
     16 H2          0.1739   -0.3173   -0.2951 H         1 <0>         0.0000
     17 H3          2.9308   -2.6169    4.9728 H         1 <0>         0.0000
     18 H4          2.7856   -3.9028    3.7562 H         1 <0>         0.0000
     19 H5          4.3015   -3.6979    4.6430 H         1 <0>         0.0000
     20 H6          4.6635   -2.8286    2.4859 H         1 <0>         0.0000
     21 H7          5.3015   -0.6424    3.0201 H         1 <0>         0.0000
     22 H8          5.3748   -1.4645    4.4345 H         1 <0>         0.0000
     23 H9          0.6140   -0.7132    4.1679 H         1 <0>         0.0000
@<TRIPOS>BOND
     1    1    2 ar
     2    1    4 ar
     3    1   15 1
     4    2    6 ar
     5    2   16 1
     6    3    4 ar
     7    3    5 ar
     8    3    8 1
     9    4   10 1
    10    5    6 ar
    11    5   13 1
    12    6   14 1
    13    7    8 1
    14    7   17 1
    15    7   18 1
    16    7   19 1
    17    8    9 1
    18    8   20 1
    19    9   21 1
    20    9   22 1
    21   10   11 1
    22   10   12 2
    23   13   23 1
