@<TRIPOS>MOLECULE
*****
   23    23     0     0     0
SMALL
NO_CHARGES

@<TRIPOS>ATOM
      1 C1          3.0452    1.0065    0.0649 C.2       1 <0>         0.0000
      2 C2          4.2529    0.9328   -0.6994 C.2       1 <0>         0.0000
      3 C3          2.2542   -0.0962   -0.1182 C.2       1 <0>         0.0000
      4 C4          4.3978   -0.1970   -1.4605 C.2       1 <0>         0.0000
      5 C5          5.5343   -0.6152   -2.3445 C.3       1 <0>         0.0000
      6 C6         -0.6125    0.6672    3.7849 C.3       1 <0>         0.0000
      7 C7          0.8995   -0.3761    0.4751 C.3       1 <0>         0.0000
      8 C8         -0.5497    0.0448    2.3919 C.3       1 <0>         0.0000
      9 N1          0.7649    0.2635    1.7821 N.3       1 <0>         0.0000
     10 S1          3.0014   -1.2208   -1.2232 S.3       1 <0>         0.0000
     11 Br1         5.5692    2.3167   -0.6439 Br        1 <0>         0.0000
     12 H1          2.7735    1.8323    0.7108 H         1 <0>         0.0000
     13 H2          6.3310   -1.0959   -1.7646 H         1 <0>         0.0000
     14 H3          5.2052   -1.3195   -3.1132 H         1 <0>         0.0000
     15 H4          5.9668    0.2566   -2.8425 H         1 <0>         0.0000
     16 H5          0.1169    0.2020    4.4589 H         1 <0>         0.0000
     17 H6         -0.3954    1.7385    3.7376 H         1 <0>         0.0000
     18 H7         -1.6053    0.5307    4.2254 H         1 <0>         0.0000
     19 H8          0.1198    0.0355   -0.1797 H         1 <0>         0.0000
     20 H9          0.7277   -1.4682    0.5064 H         1 <0>         0.0000
     21 H10        -1.3001    0.5140    1.7439 H         1 <0>         0.0000
     22 H11        -0.8105   -1.0282    2.4504 H         1 <0>         0.0000
     23 H12         1.4889   -0.1023    2.3995 H         1 <0>         0.0000
@<TRIPOS>BOND
     1    1    2 1
     2    1    3 2
     3    1   12 1
     4    2    4 2
     5    2   11 1
     6    3    7 1
     7    3   10 1
     8    4    5 1
     9    4   10 1
    10    5   13 1
    11    5   14 1
    12    5   15 1
    13    6    8 1
    14    6   16 1
    15    6   17 1
    16    6   18 1
    17    7    9 1
    18    7   19 1
    19    7   20 1
    20    8    9 1
    21    8   21 1
    22    8   22 1
    23    9   23 1
