@<TRIPOS>MOLECULE
*****
   43    45     0     0     0
SMALL
NO_CHARGES

@<TRIPOS>ATOM
      1 C1         -2.1204    4.0830   -6.6937 C.ar      1 <0>         0.0000
      2 C2         -0.8219    4.4538   -7.1006 C.ar      1 <0>         0.0000
      3 C3         -2.3147    2.9569   -5.8949 C.ar      1 <0>         0.0000
      4 C4          0.3060    3.7273   -6.7132 C.ar      1 <0>         0.0000
      5 C5         -1.1908    2.2167   -5.5183 C.ar      1 <0>         0.0000
      6 C6          0.0963    2.6089   -5.9008 C.ar      1 <0>         0.0000
      7 C7         -1.0574    1.0056   -4.6995 C.2       1 <0>         0.0000
      8 C8          0.8444    0.9604   -2.3475 C.2       1 <0>         0.0000
      9 C9          0.0680   -1.5383   -0.3490 C.3       1 <0>         0.0000
     10 C10         1.3887   -1.0169   -0.9308 C.3       1 <0>         0.0000
     11 C11         1.0216    1.1791    0.0611 C.3       1 <0>         0.0000
     12 C12        -0.3113    0.7368    0.6920 C.3       1 <0>         0.0000
     13 C13        -0.3462   -0.7956    0.9401 C.3       1 <0>         0.0000
     14 C14        -0.6253    1.5696    1.9382 C.3       1 <0>         0.0000
     15 C15         0.5192   -1.2309    2.1256 C.3       1 <0>         0.0000
     16 C16         0.8913    0.0414   -3.5892 C.3       1 <0>         0.0000
     17 N1          1.0617    1.7491   -5.3396 N.pl3     1 <0>         0.0000
     18 N2          0.3134    0.6833   -4.7484 N.am      1 <0>         0.0000
     19 N3          1.2996    0.4264   -1.1660 N.am      1 <0>         0.0000
     20 O1         -1.8873    0.3593   -4.0655 O.2       1 <0>         0.0000
     21 O2          0.4299    2.1113   -2.4445 O.2       1 <0>         0.0000
     22 O3         -1.6792   -1.2021    1.3050 O.3       1 <0>         0.0000
     23 H1         -2.9699    4.6828   -7.0079 H         1 <0>         0.0000
     24 H2         -0.6930    5.3354   -7.7233 H         1 <0>         0.0000
     25 H3         -3.3046    2.6482   -5.5714 H         1 <0>         0.0000
     26 H4          1.3037    4.0340   -7.0153 H         1 <0>         0.0000
     27 H5         -0.7179   -1.4003   -1.1037 H         1 <0>         0.0000
     28 H6          0.1347   -2.6118   -0.1413 H         1 <0>         0.0000
     29 H7          2.2149   -1.1935   -0.2333 H         1 <0>         0.0000
     30 H8          1.6477   -1.5411   -1.8505 H         1 <0>         0.0000
     31 H9          0.9854    2.2383   -0.1908 H         1 <0>         0.0000
     32 H10         1.8534    1.0211    0.7578 H         1 <0>         0.0000
     33 H11        -1.0849    0.9450   -0.0611 H         1 <0>         0.0000
     34 H12         0.1981    1.5437    2.6602 H         1 <0>         0.0000
     35 H13        -1.5253    1.1998    2.4367 H         1 <0>         0.0000
     36 H14        -0.7906    2.6164    1.6630 H         1 <0>         0.0000
     37 H15         0.1368   -0.8004    3.0533 H         1 <0>         0.0000
     38 H16         1.5619   -0.9240    2.0085 H         1 <0>         0.0000
     39 H17         0.4887   -2.3198    2.2238 H         1 <0>         0.0000
     40 H18         0.2989   -0.8586   -3.4151 H         1 <0>         0.0000
     41 H19         1.9177   -0.2653   -3.8093 H         1 <0>         0.0000
     42 H20         1.6971    1.3643   -6.0391 H         1 <0>         0.0000
     43 H21        -2.2747   -0.9588    0.5768 H         1 <0>         0.0000
@<TRIPOS>BOND
     1    1    2 ar
     2    1    3 ar
     3    1   23 1
     4    2    4 ar
     5    2   24 1
     6    3    5 ar
     7    3   25 1
     8    4    6 ar
     9    4   26 1
    10    5    6 ar
    11    5    7 1
    12    6   17 1
    13    7   18 am
    14    7   20 2
    15    8   16 1
    16    8   19 am
    17    8   21 2
    18    9   10 1
    19    9   13 1
    20    9   27 1
    21    9   28 1
    22   10   19 1
    23   10   29 1
    24   10   30 1
    25   11   12 1
    26   11   19 1
    27   11   31 1
    28   11   32 1
    29   12   13 1
    30   12   14 1
    31   12   33 1
    32   13   15 1
    33   13   22 1
    34   14   34 1
    35   14   35 1
    36   14   36 1
    37   15   37 1
    38   15   38 1
    39   15   39 1
    40   16   18 1
    41   16   40 1
    42   16   41 1
    43   17   18 1
    44   17   42 1
    45   22   43 1
