@<TRIPOS>MOLECULE
*****
   22    22     0     0     0
SMALL
NO_CHARGES

@<TRIPOS>ATOM
      1 C1          2.0002   -1.7652   -0.2888 C.ar      1 <0>         0.0000
      2 C2          0.9398   -0.9217    0.0400 C.ar      1 <0>         0.0000
      3 C3          2.0796   -0.3186    2.1017 C.ar      1 <0>         0.0000
      4 C4          3.1084   -1.9006    0.5560 C.ar      1 <0>         0.0000
      5 C5          0.9936   -0.1986    1.2340 C.ar      1 <0>         0.0000
      6 C6          3.1300   -1.1744    1.7593 C.ar      1 <0>         0.0000
      7 C7          5.0602   -1.3483   -1.5761 C.2       1 <0>         0.0000
      8 C8          5.3141   -2.1835   -0.3468 C.3       1 <0>         0.0000
      9 N1          5.2134   -1.9408   -2.7141 N.2       1 <0>         0.0000
     10 N2          4.7503   -0.0123   -1.4134 N.pl3     1 <0>         0.0000
     11 O1          4.9113   -1.0286   -3.7707 O.3       1 <0>         0.0000
     12 O2          4.1094   -2.7705    0.2070 O.3       1 <0>         0.0000
     13 Cl1        -0.3255    0.8754    1.6606 Cl        1 <0>         0.0000
     14 Cl2         4.4757   -1.3464    2.8650 Cl        1 <0>         0.0000
     15 H1          1.9954   -2.3328   -1.2142 H         1 <0>         0.0000
     16 H2          0.0858   -0.8221   -0.6220 H         1 <0>         0.0000
     17 H3          2.1089    0.2342    3.0343 H         1 <0>         0.0000
     18 H4          5.8203   -1.5851    0.4175 H         1 <0>         0.0000
     19 H5          5.9351   -3.0361   -0.6150 H         1 <0>         0.0000
     20 H6          4.3713    0.4370   -2.2398 H         1 <0>         0.0000
     21 H7          4.2873    0.2429   -0.5503 H         1 <0>         0.0000
     22 H8          5.0685   -1.5692   -4.5603 H         1 <0>         0.0000
@<TRIPOS>BOND
     1    1    2 ar
     2    1    4 ar
     3    1   15 1
     4    2    5 ar
     5    2   16 1
     6    3    5 ar
     7    3    6 ar
     8    3   17 1
     9    4    6 ar
    10    4   12 1
    11    5   13 1
    12    6   14 1
    13    7    8 1
    14    7    9 2
    15    7   10 1
    16    8   12 1
    17    8   18 1
    18    8   19 1
    19    9   11 1
    20   10   20 1
    21   10   21 1
    22   11   22 1
