@<TRIPOS>MOLECULE
*****
   38    40     0     0     0
SMALL
NO_CHARGES

@<TRIPOS>ATOM
      1 C1         -8.4711    4.5735    2.4908 C.ar      1 <0>         0.0000
      2 C2         -9.2649    4.2039    1.4001 C.ar      1 <0>         0.0000
      3 C3         -7.1052    4.2904    2.4786 C.ar      1 <0>         0.0000
      4 C4         -8.6956    3.5655    0.2958 C.ar      1 <0>         0.0000
      5 C5         -3.1315    2.4036    1.4767 C.2       1 <0>         0.0000
      6 C6         -6.5270    3.6463    1.3817 C.ar      1 <0>         0.0000
      7 C7         -7.3252    3.2956    0.2835 C.ar      1 <0>         0.0000
      8 C8         -3.0342    3.8165    1.2744 C.2       1 <0>         0.0000
      9 C9         -4.5030    2.1758    1.5486 C.2       1 <0>         0.0000
     10 C10        -2.0079    1.4855    1.5837 C.2       1 <0>         0.0000
     11 C11         0.2377   -0.1337    1.9918 C.3       1 <0>         0.0000
     12 C12        -1.4268   -1.8002    2.6517 C.3       1 <0>         0.0000
     13 C13         1.2435   -1.2814    1.8871 C.3       1 <0>         0.0000
     14 C14        -0.3601   -2.8729    2.4806 C.3       1 <0>         0.0000
     15 C15        -1.7889    4.6359    1.1214 C.3       1 <0>         0.0000
     16 N1         -4.2324    4.3965    1.2269 N.2       1 <0>         0.0000
     17 N2         -2.1807    0.2212    1.7759 N.2       1 <0>         0.0000
     18 N3         -5.1314    3.3783    1.3923 N.pl3     1 <0>         0.0000
     19 N4         -1.1194   -0.6447    1.8024 N.pl3     1 <0>         0.0000
     20 O1          0.9388   -2.3542    2.7693 O.3       1 <0>         0.0000
     21 Cl1        -6.6135    2.5380   -1.1202 Cl        1 <0>         0.0000
     22 Cl2        -5.3929    0.7333    1.8163 Cl        1 <0>         0.0000
     23 H1         -8.9137    5.0744    3.3467 H         1 <0>         0.0000
     24 H2        -10.3306    4.4149    1.4022 H         1 <0>         0.0000
     25 H3         -6.4651    4.5623    3.3123 H         1 <0>         0.0000
     26 H4         -9.3024    3.2859   -0.5594 H         1 <0>         0.0000
     27 H5         -1.0234    1.9465    1.4751 H         1 <0>         0.0000
     28 H6          0.3305    0.3793    2.9651 H         1 <0>         0.0000
     29 H7          0.4732    0.5877    1.2027 H         1 <0>         0.0000
     30 H8         -2.4092   -2.1773    2.3573 H         1 <0>         0.0000
     31 H9         -1.4769   -1.4981    3.7104 H         1 <0>         0.0000
     32 H10         1.2676   -1.6474    0.8491 H         1 <0>         0.0000
     33 H11         2.2419   -0.9273    2.1566 H         1 <0>         0.0000
     34 H12        -0.5301   -3.6956    3.1793 H         1 <0>         0.0000
     35 H13        -0.3830   -3.2674    1.4531 H         1 <0>         0.0000
     36 H14        -1.2046    4.3146    0.2520 H         1 <0>         0.0000
     37 H15        -2.0566    5.6861    0.9869 H         1 <0>         0.0000
     38 H16        -1.1439    4.5527    2.0033 H         1 <0>         0.0000
@<TRIPOS>BOND
     1    1    2 ar
     2    1    3 ar
     3    1   23 1
     4    2    4 ar
     5    2   24 1
     6    3    6 ar
     7    3   25 1
     8    4    7 ar
     9    4   26 1
    10    5    8 1
    11    5    9 2
    12    5   10 1
    13    6    7 ar
    14    6   18 1
    15    7   21 1
    16    8   15 1
    17    8   16 2
    18    9   18 1
    19    9   22 1
    20   10   17 2
    21   10   27 1
    22   11   13 1
    23   11   19 1
    24   11   28 1
    25   11   29 1
    26   12   14 1
    27   12   19 1
    28   12   30 1
    29   12   31 1
    30   13   20 1
    31   13   32 1
    32   13   33 1
    33   14   20 1
    34   14   34 1
    35   14   35 1
    36   15   36 1
    37   15   37 1
    38   15   38 1
    39   16   18 1
    40   17   19 1
