@<TRIPOS>MOLECULE
*****
   50    52     0     0     0
SMALL
NO_CHARGES

@<TRIPOS>ATOM
      1 C1          0.0891   -4.6422    1.5254 C.ar      1 <0>         0.0000
      2 C2          1.1999   -5.4771    1.7014 C.ar      1 <0>         0.0000
      3 C3          0.0586   -3.7318    0.4687 C.ar      1 <0>         0.0000
      4 C4          2.2743   -5.3874    0.8162 C.ar      1 <0>         0.0000
      5 C5          4.6952   -4.5956   -2.8546 C.2       1 <0>         0.0000
      6 C6          1.1256   -3.6360   -0.4364 C.ar      1 <0>         0.0000
      7 C7          2.2327   -4.4729   -0.2410 C.ar      1 <0>         0.0000
      8 C8          5.1539   -3.5889   -1.9621 C.2       1 <0>         0.0000
      9 C9          3.5291   -5.0911   -2.2913 C.2       1 <0>         0.0000
     10 C10         1.8095    0.5890    0.2249 C.3       1 <0>         0.0000
     11 C11         2.0581   -0.8080   -0.3400 C.3       1 <0>         0.0000
     12 C12         0.5608   -0.3567   -2.1798 C.3       1 <0>         0.0000
     13 C13         0.2751    1.0674   -1.6871 C.3       1 <0>         0.0000
     14 C14         1.4554    1.6200   -0.8602 C.3       1 <0>         0.0000
     15 C15         6.3745   -2.7247   -2.0757 C.3       1 <0>         0.0000
     16 C16         2.5697   -6.1415   -2.7544 C.3       1 <0>         0.0000
     17 C17        -0.1421    1.9746   -2.8499 C.3       1 <0>         0.0000
     18 C18         2.6801    1.9807   -1.7129 C.3       1 <0>         0.0000
     19 C19         1.0535   -2.6373   -1.5727 C.3       1 <0>         0.0000
     20 N1          4.3313   -3.4651   -0.9175 N.2       1 <0>         0.0000
     21 N2          3.3507   -4.3951   -1.1279 N.pl3     1 <0>         0.0000
     22 N3          0.8779   -1.2691   -1.0807 N.3       1 <0>         0.0000
     23 O1          0.9507    2.8215   -0.2354 O.3       1 <0>         0.0000
     24 H1         -0.7493   -4.7009    2.2147 H         1 <0>         0.0000
     25 H2          1.2309   -6.1847    2.5255 H         1 <0>         0.0000
     26 H3         -0.7897   -3.0649    0.3401 H         1 <0>         0.0000
     27 H4          3.1569   -6.0087    0.9384 H         1 <0>         0.0000
     28 H5          5.1519   -4.9194   -3.7811 H         1 <0>         0.0000
     29 H6          0.9742    0.5452    0.9318 H         1 <0>         0.0000
     30 H7          2.6979    0.9207    0.7788 H         1 <0>         0.0000
     31 H8          2.9598   -0.8224   -0.9776 H         1 <0>         0.0000
     32 H9          2.2546   -1.5073    0.4764 H         1 <0>         0.0000
     33 H10        -0.3316   -0.7346   -2.6923 H         1 <0>         0.0000
     34 H11         1.3718   -0.3369   -2.9351 H         1 <0>         0.0000
     35 H12        -0.5636    1.0039   -0.9836 H         1 <0>         0.0000
     36 H13         6.3659   -2.1461   -3.0060 H         1 <0>         0.0000
     37 H14         6.4166   -2.0286   -1.2346 H         1 <0>         0.0000
     38 H15         7.2903   -3.3262   -2.0722 H         1 <0>         0.0000
     39 H16         2.4879   -6.9606   -2.0322 H         1 <0>         0.0000
     40 H17         1.5637   -5.7308   -2.8951 H         1 <0>         0.0000
     41 H18         2.9052   -6.5570   -3.7071 H         1 <0>         0.0000
     42 H19         0.6024    1.9761   -3.6535 H         1 <0>         0.0000
     43 H20        -0.2789    3.0031   -2.5068 H         1 <0>         0.0000
     44 H21        -1.0891    1.6306   -3.2808 H         1 <0>         0.0000
     45 H22         2.4396    2.7898   -2.4065 H         1 <0>         0.0000
     46 H23         3.0518    1.1291   -2.2892 H         1 <0>         0.0000
     47 H24         3.5001    2.3202   -1.0681 H         1 <0>         0.0000
     48 H25         1.9419   -2.7293   -2.2182 H         1 <0>         0.0000
     49 H26         0.1814   -2.8777   -2.1930 H         1 <0>         0.0000
     50 H27         1.6591    3.1819    0.3223 H         1 <0>         0.0000
@<TRIPOS>BOND
     1    1    2 ar
     2    1    3 ar
     3    1   24 1
     4    2    4 ar
     5    2   25 1
     6    3    6 ar
     7    3   26 1
     8    4    7 ar
     9    4   27 1
    10    5    8 1
    11    5    9 2
    12    5   28 1
    13    6    7 ar
    14    6   19 1
    15    7   21 1
    16    8   15 1
    17    8   20 2
    18    9   16 1
    19    9   21 1
    20   10   11 1
    21   10   14 1
    22   10   29 1
    23   10   30 1
    24   11   22 1
    25   11   31 1
    26   11   32 1
    27   12   13 1
    28   12   22 1
    29   12   33 1
    30   12   34 1
    31   13   14 1
    32   13   17 1
    33   13   35 1
    34   14   18 1
    35   14   23 1
    36   15   36 1
    37   15   37 1
    38   15   38 1
    39   16   39 1
    40   16   40 1
    41   16   41 1
    42   17   42 1
    43   17   43 1
    44   17   44 1
    45   18   45 1
    46   18   46 1
    47   18   47 1
    48   19   22 1
    49   19   48 1
    50   19   49 1
    51   20   21 1
    52   23   50 1
