@<TRIPOS>MOLECULE
*****
   47    50     0     0     0
SMALL
NO_CHARGES

@<TRIPOS>ATOM
      1 C1          0.7033   -2.7172   -4.6113 C.1       1 <0>         0.0000
      2 C2          2.6112   -4.1427   -7.4620 C.ar      1 <0>         0.0000
      3 C3          3.9344   -3.9756   -7.0326 C.ar      1 <0>         0.0000
      4 C4          1.5690   -3.7432   -6.6308 C.ar      1 <0>         0.0000
      5 C5          4.2046   -3.4305   -5.7806 C.ar      1 <0>         0.0000
      6 C6          4.6242   -1.7726   -3.1770 C.2       1 <0>         0.0000
      7 C7          4.3781   -1.4430   -1.8081 C.2       1 <0>         0.0000
      8 C8          1.8338   -3.1759   -5.3701 C.ar      1 <0>         0.0000
      9 C9          3.1693   -3.0197   -4.9190 C.ar      1 <0>         0.0000
     10 C10         3.5116   -2.4459   -3.6266 C.2       1 <0>         0.0000
     11 C11         3.1379   -1.9369   -1.4981 C.2       1 <0>         0.0000
     12 C12         0.4870    1.8244    0.5674 C.3       1 <0>         0.0000
     13 C13         0.6826    1.4132   -0.9164 C.3       1 <0>         0.0000
     14 C14        -1.3175    0.1092    1.1502 C.3       1 <0>         0.0000
     15 C15         1.1730   -0.4799    1.3425 C.3       1 <0>         0.0000
     16 C16        -0.6285   -0.7779   -1.0299 C.3       1 <0>         0.0000
     17 C17         0.1023    0.6234    1.4496 C.3       1 <0>         0.0000
     18 C18         0.7718   -0.1143   -1.0508 C.3       1 <0>         0.0000
     19 C19        -2.9652   -0.5292   -0.4770 C.3       1 <0>         0.0000
     20 C20         2.2976   -1.9025   -0.2611 C.3       1 <0>         0.0000
     21 N1         -0.2557   -2.3387   -4.0686 N.1       1 <0>         0.0000
     22 N2         -1.6196   -0.0128   -0.2721 N.3       1 <0>         0.0000
     23 N3          1.7124   -0.5873   -0.0182 N.3       1 <0>         0.0000
     24 O1          2.6040   -2.5501   -2.6021 O.3       1 <0>         0.0000
     25 H1          2.3971   -4.5784   -8.4334 H         1 <0>         0.0000
     26 H2          4.7570   -4.2873   -7.6707 H         1 <0>         0.0000
     27 H3          0.5367   -3.8510   -6.9493 H         1 <0>         0.0000
     28 H4          5.2328   -3.3403   -5.4436 H         1 <0>         0.0000
     29 H5          5.4964   -1.5167   -3.7641 H         1 <0>         0.0000
     30 H6          5.0241   -0.8937   -1.1363 H         1 <0>         0.0000
     31 H7          1.4172    2.2513    0.9589 H         1 <0>         0.0000
     32 H8         -0.2806    2.6005    0.6516 H         1 <0>         0.0000
     33 H9         -0.1434    1.7810   -1.5294 H         1 <0>         0.0000
     34 H10         1.6108    1.8459   -1.3020 H         1 <0>         0.0000
     35 H11        -1.4632   -0.8531    1.6833 H         1 <0>         0.0000
     36 H12        -2.0428    0.8144    1.5759 H         1 <0>         0.0000
     37 H13         2.0053   -0.2562    2.0242 H         1 <0>         0.0000
     38 H14         0.7331   -1.4338    1.6839 H         1 <0>         0.0000
     39 H15        -0.9868   -0.8503   -2.0594 H         1 <0>         0.0000
     40 H16        -0.5442   -1.8213   -0.6672 H         1 <0>         0.0000
     41 H17         0.0869    0.9437    2.4984 H         1 <0>         0.0000
     42 H18         1.2229   -0.3564   -2.0161 H         1 <0>         0.0000
     43 H19        -3.2022   -0.5352   -1.5454 H         1 <0>         0.0000
     44 H20        -3.6910    0.1157    0.0309 H         1 <0>         0.0000
     45 H21        -3.0982   -1.5595   -0.0922 H         1 <0>         0.0000
     46 H22         1.5469   -2.7099   -0.3284 H         1 <0>         0.0000
     47 H23         2.9379   -2.1375    0.5967 H         1 <0>         0.0000
@<TRIPOS>BOND
     1    1    8 1
     2    1   21 3
     3    2    3 ar
     4    2    4 ar
     5    2   25 1
     6    3    5 ar
     7    3   26 1
     8    4    8 ar
     9    4   27 1
    10    5    9 ar
    11    5   28 1
    12    6    7 1
    13    6   10 2
    14    6   29 1
    15    7   11 2
    16    7   30 1
    17    8    9 ar
    18    9   10 1
    19   10   24 1
    20   11   20 1
    21   11   24 1
    22   12   13 1
    23   12   17 1
    24   12   31 1
    25   12   32 1
    26   13   18 1
    27   13   33 1
    28   13   34 1
    29   14   17 1
    30   14   22 1
    31   14   35 1
    32   14   36 1
    33   15   17 1
    34   15   23 1
    35   15   37 1
    36   15   38 1
    37   16   18 1
    38   16   22 1
    39   16   39 1
    40   16   40 1
    41   17   41 1
    42   18   23 1
    43   18   42 1
    44   19   22 1
    45   19   43 1
    46   19   44 1
    47   19   45 1
    48   20   23 1
    49   20   46 1
    50   20   47 1
