@<TRIPOS>MOLECULE
*****
   47    50     0     0     0
SMALL
NO_CHARGES

@<TRIPOS>ATOM
      1 C1          4.1767   -5.4885   -0.4800 C.1       1 <0>         0.0000
      2 C2          7.7865   -6.3475   -0.6036 C.ar      1 <0>         0.0000
      3 C3          8.3864   -5.0812   -0.6365 C.ar      1 <0>         0.0000
      4 C4          6.3991   -6.4419   -0.5709 C.ar      1 <0>         0.0000
      5 C5          7.6025   -3.9323   -0.6469 C.ar      1 <0>         0.0000
      6 C6          5.7676   -1.4596   -0.3014 C.2       1 <0>         0.0000
      7 C7          4.5820   -0.6770   -0.4696 C.2       1 <0>         0.0000
      8 C8          5.5969   -5.2842   -0.5684 C.ar      1 <0>         0.0000
      9 C9          6.1949   -3.9978   -0.6120 C.ar      1 <0>         0.0000
     10 C10         5.4346   -2.7590   -0.6117 C.2       1 <0>         0.0000
     11 C11         3.5995   -1.5417   -0.8744 C.2       1 <0>         0.0000
     12 C12         0.1952    1.6680    1.0344 C.3       1 <0>         0.0000
     13 C13         0.1576    1.7271   -0.5164 C.3       1 <0>         0.0000
     14 C14        -1.1237   -0.4979    1.3524 C.3       1 <0>         0.0000
     15 C15         1.4126   -0.5367    0.9321 C.3       1 <0>         0.0000
     16 C16        -0.9088   -0.5227   -1.0858 C.3       1 <0>         0.0000
     17 C17         0.2255    0.2194    1.5496 C.3       1 <0>         0.0000
     18 C18         0.3802    0.3379   -1.1334 C.3       1 <0>         0.0000
     19 C19        -3.0440   -0.9137   -0.0338 C.3       1 <0>         0.0000
     20 C20         2.1548   -1.3698   -1.2338 C.3       1 <0>         0.0000
     21 N1          3.0429   -5.7433   -0.3882 N.1       1 <0>         0.0000
     22 N2         -1.7609   -0.2305    0.0648 N.3       1 <0>         0.0000
     23 N3          1.5670   -0.2583   -0.5055 N.3       1 <0>         0.0000
     24 O1          4.1067   -2.8075   -0.9616 O.3       1 <0>         0.0000
     25 H1          8.3946   -7.2472   -0.6046 H         1 <0>         0.0000
     26 H2          9.4690   -4.9921   -0.6681 H         1 <0>         0.0000
     27 H3          5.9129   -7.4121   -0.5378 H         1 <0>         0.0000
     28 H4          8.0805   -2.9593   -0.7039 H         1 <0>         0.0000
     29 H5          6.7337   -1.1096    0.0373 H         1 <0>         0.0000
     30 H6          4.4530    0.3833   -0.3031 H         1 <0>         0.0000
     31 H7          1.0902    2.1815    1.4034 H         1 <0>         0.0000
     32 H8         -0.6693    2.1896    1.4565 H         1 <0>         0.0000
     33 H9         -0.8014    2.1218   -0.8613 H         1 <0>         0.0000
     34 H10         0.9460    2.3913   -0.8834 H         1 <0>         0.0000
     35 H11        -0.9781   -1.5841    1.5185 H         1 <0>         0.0000
     36 H12        -1.8184   -0.1524    2.1277 H         1 <0>         0.0000
     37 H13         2.3350   -0.2465    1.4498 H         1 <0>         0.0000
     38 H14         1.2832   -1.6172    1.1096 H         1 <0>         0.0000
     39 H15        -1.4994   -0.3024   -1.9826 H         1 <0>         0.0000
     40 H16        -0.6406   -1.5961   -1.1432 H         1 <0>         0.0000
     41 H17         0.4008    0.2319    2.6320 H         1 <0>         0.0000
     42 H18         0.6345    0.4657   -2.1913 H         1 <0>         0.0000
     43 H19        -3.5453   -0.6312   -0.9654 H         1 <0>         0.0000
     44 H20        -3.6870   -0.6149    0.8008 H         1 <0>         0.0000
     45 H21        -2.9516   -2.0167   -0.0150 H         1 <0>         0.0000
     46 H22         2.0749   -1.1639   -2.3088 H         1 <0>         0.0000
     47 H23         1.6480   -2.3356   -1.0587 H         1 <0>         0.0000
@<TRIPOS>BOND
     1    1    8 1
     2    1   21 3
     3    2    3 ar
     4    2    4 ar
     5    2   25 1
     6    3    5 ar
     7    3   26 1
     8    4    8 ar
     9    4   27 1
    10    5    9 ar
    11    5   28 1
    12    6    7 1
    13    6   10 2
    14    6   29 1
    15    7   11 2
    16    7   30 1
    17    8    9 ar
    18    9   10 1
    19   10   24 1
    20   11   20 1
    21   11   24 1
    22   12   13 1
    23   12   17 1
    24   12   31 1
    25   12   32 1
    26   13   18 1
    27   13   33 1
    28   13   34 1
    29   14   17 1
    30   14   22 1
    31   14   35 1
    32   14   36 1
    33   15   17 1
    34   15   23 1
    35   15   37 1
    36   15   38 1
    37   16   18 1
    38   16   22 1
    39   16   39 1
    40   16   40 1
    41   17   41 1
    42   18   23 1
    43   18   42 1
    44   19   22 1
    45   19   43 1
    46   19   44 1
    47   19   45 1
    48   20   23 1
    49   20   46 1
    50   20   47 1
