@<TRIPOS>MOLECULE
*****
   39    41     0     0     0
SMALL
NO_CHARGES

@<TRIPOS>ATOM
      1 C1         -5.3220   -2.4746    5.6857 C.ar      1 <0>         0.0000
      2 C2         -5.8546   -3.5797    6.3670 C.ar      1 <0>         0.0000
      3 C3         -4.6849   -2.6313    4.4498 C.ar      1 <0>         0.0000
      4 C4         -5.7637   -4.8698    5.8283 C.ar      1 <0>         0.0000
      5 C5         -4.1504   -9.3358    1.4268 C.2       1 <0>         0.0000
      6 C6         -4.5920   -3.9131    3.9109 C.ar      1 <0>         0.0000
      7 C7         -4.6969   -8.4277    0.4501 C.2       1 <0>         0.0000
      8 C8         -5.1233   -4.9972    4.6033 C.ar      1 <0>         0.0000
      9 C9         -4.6913  -10.5759    1.2017 C.2       1 <0>         0.0000
     10 C10        -5.5749   -9.1714   -0.3530 C.2       1 <0>         0.0000
     11 C11        -3.9382   -4.2808    2.6204 C.2       1 <0>         0.0000
     12 C12        -4.4482   -6.9986    0.3385 C.2       1 <0>         0.0000
     13 C13        -4.4899  -11.8630    1.9355 C.3       1 <0>         0.0000
     14 C14        -6.4350   -8.7490   -1.5000 C.3       1 <0>         0.0000
     15 C15        -6.3739  -11.5441   -0.4152 C.3       1 <0>         0.0000
     16 C16        -3.4324   -6.3726    1.3200 C.3       1 <0>         0.0000
     17 N1         -5.5502  -10.4634    0.1037 N.pl3     1 <0>         0.0000
     18 N2         -4.1060   -5.6465    2.3968 N.am      1 <0>         0.0000
     19 O1         -3.3279   -3.5258    1.8833 O.2       1 <0>         0.0000
     20 O2         -4.9894   -6.2477   -0.4744 O.2       1 <0>         0.0000
     21 O3         -3.8904   -7.3879    4.3051 O.2       1 <0>         0.0000
     22 O4         -6.1518   -7.0616    3.2365 O.2       1 <0>         0.0000
     23 S1         -4.8773   -6.5044    3.6789 S.o2      1 <0>         0.0000
     24 H1         -5.4073   -1.4852    6.1259 H         1 <0>         0.0000
     25 H2         -6.3451   -3.4353    7.3254 H         1 <0>         0.0000
     26 H3         -4.2663   -1.7890    3.9073 H         1 <0>         0.0000
     27 H4         -6.1756   -5.7299    6.3470 H         1 <0>         0.0000
     28 H5         -3.4730   -9.1027    2.2367 H         1 <0>         0.0000
     29 H6         -5.4291  -12.2633    2.3361 H         1 <0>         0.0000
     30 H7         -4.0391  -12.6402    1.3053 H         1 <0>         0.0000
     31 H8         -3.8178  -11.6916    2.7792 H         1 <0>         0.0000
     32 H9         -6.1428   -9.2515   -2.4312 H         1 <0>         0.0000
     33 H10        -7.4904   -8.9831   -1.3149 H         1 <0>         0.0000
     34 H11        -6.3367   -7.6743   -1.6428 H         1 <0>         0.0000
     35 H12        -7.3504  -11.5716    0.0818 H         1 <0>         0.0000
     36 H13        -6.5299  -11.4136   -1.4870 H         1 <0>         0.0000
     37 H14        -5.8729  -12.4997   -0.2556 H         1 <0>         0.0000
     38 H15        -2.8650   -5.6179    0.7724 H         1 <0>         0.0000
     39 H16        -2.7429   -7.0999    1.7543 H         1 <0>         0.0000
@<TRIPOS>BOND
     1    1    2 ar
     2    1    3 ar
     3    1   24 1
     4    2    4 ar
     5    2   25 1
     6    3    6 ar
     7    3   26 1
     8    4    8 ar
     9    4   27 1
    10    5    7 1
    11    5    9 2
    12    5   28 1
    13    6    8 ar
    14    6   11 1
    15    7   10 2
    16    7   12 1
    17    8   23 1
    18    9   13 1
    19    9   17 1
    20   10   14 1
    21   10   17 1
    22   11   18 am
    23   11   19 2
    24   12   16 1
    25   12   20 2
    26   13   29 1
    27   13   30 1
    28   13   31 1
    29   14   32 1
    30   14   33 1
    31   14   34 1
    32   15   17 1
    33   15   35 1
    34   15   36 1
    35   15   37 1
    36   16   18 1
    37   16   38 1
    38   16   39 1
    39   18   23 1
    40   21   23 2
    41   22   23 2
