@<TRIPOS>MOLECULE
*****
   39    41     0     0     0
SMALL
NO_CHARGES

@<TRIPOS>ATOM
      1 C1          2.1553   -3.5267   -1.0380 C.ar      1 <0>         0.0000
      2 C2          1.1857   -2.5250   -1.1970 C.ar      1 <0>         0.0000
      3 C3          1.8723   -4.6924   -0.3181 C.ar      1 <0>         0.0000
      4 C4         -0.0918   -2.6650   -0.6395 C.ar      1 <0>         0.0000
      5 C5         -3.9840   -9.4836   -0.3858 C.2       1 <0>         0.0000
      6 C6          0.6009   -4.8384    0.2334 C.ar      1 <0>         0.0000
      7 C7         -3.5224   -8.7004    0.7241 C.2       1 <0>         0.0000
      8 C8         -0.3496   -3.8358    0.0601 C.ar      1 <0>         0.0000
      9 C9         -4.9867  -10.3064    0.0596 C.2       1 <0>         0.0000
     10 C10        -4.2730   -9.0854    1.8442 C.2       1 <0>         0.0000
     11 C11         0.1107   -6.0069    1.0189 C.2       1 <0>         0.0000
     12 C12        -2.4812   -7.6852    0.5819 C.2       1 <0>         0.0000
     13 C13        -5.8038  -11.3119   -0.6888 C.3       1 <0>         0.0000
     14 C14        -4.2517   -8.6262    3.2726 C.3       1 <0>         0.0000
     15 C15        -6.1254  -10.7266    2.2794 C.3       1 <0>         0.0000
     16 C16        -2.0853   -6.8418    1.8155 C.3       1 <0>         0.0000
     17 N1         -5.1579  -10.0532    1.4247 N.pl3     1 <0>         0.0000
     18 N2         -1.1944   -5.7566    1.4519 N.am      1 <0>         0.0000
     19 O1          0.7373   -7.0167    1.2890 O.2       1 <0>         0.0000
     20 O2         -1.9040   -7.4846   -0.4812 O.2       1 <0>         0.0000
     21 O3         -2.1012   -3.3907    2.0385 O.2       1 <0>         0.0000
     22 O4         -2.9752   -4.5348   -0.0247 O.2       1 <0>         0.0000
     23 S1         -1.8690   -4.2696    0.8920 S.o2      1 <0>         0.0000
     24 H1          3.1380   -3.3925   -1.4812 H         1 <0>         0.0000
     25 H2          1.4263   -1.6279   -1.7604 H         1 <0>         0.0000
     26 H3          2.6088   -5.4789   -0.1840 H         1 <0>         0.0000
     27 H4         -0.8473   -1.8940   -0.7552 H         1 <0>         0.0000
     28 H5         -3.6017   -9.4153   -1.3948 H         1 <0>         0.0000
     29 H6         -5.6904  -12.3270   -0.2890 H         1 <0>         0.0000
     30 H7         -6.8736  -11.0686   -0.6865 H         1 <0>         0.0000
     31 H8         -5.4746  -11.3299   -1.7300 H         1 <0>         0.0000
     32 H9         -4.7886   -7.6785    3.4063 H         1 <0>         0.0000
     33 H10        -4.7169   -9.3586    3.9359 H         1 <0>         0.0000
     34 H11        -3.2312   -8.4802    3.6304 H         1 <0>         0.0000
     35 H12        -5.6288  -11.3689    3.0144 H         1 <0>         0.0000
     36 H13        -6.7523  -10.0018    2.8059 H         1 <0>         0.0000
     37 H14        -6.7732  -11.3504    1.6653 H         1 <0>         0.0000
     38 H15        -1.5538   -7.4735    2.5327 H         1 <0>         0.0000
     39 H16        -2.9617   -6.4273    2.3170 H         1 <0>         0.0000
@<TRIPOS>BOND
     1    1    2 ar
     2    1    3 ar
     3    1   24 1
     4    2    4 ar
     5    2   25 1
     6    3    6 ar
     7    3   26 1
     8    4    8 ar
     9    4   27 1
    10    5    7 1
    11    5    9 2
    12    5   28 1
    13    6    8 ar
    14    6   11 1
    15    7   10 2
    16    7   12 1
    17    8   23 1
    18    9   13 1
    19    9   17 1
    20   10   14 1
    21   10   17 1
    22   11   18 am
    23   11   19 2
    24   12   16 1
    25   12   20 2
    26   13   29 1
    27   13   30 1
    28   13   31 1
    29   14   32 1
    30   14   33 1
    31   14   34 1
    32   15   17 1
    33   15   35 1
    34   15   36 1
    35   15   37 1
    36   16   18 1
    37   16   38 1
    38   16   39 1
    39   18   23 1
    40   21   23 2
    41   22   23 2
