@<TRIPOS>MOLECULE
*****
   34    37     0     0     0
SMALL
NO_CHARGES

@<TRIPOS>ATOM
      1 C1          5.2913    1.0458    3.2031 C.ar      1 <0>         0.0000
      2 C2          4.0749    0.9966    2.4986 C.ar      1 <0>         0.0000
      3 C3          6.0722   -0.0948    3.3806 C.ar      1 <0>         0.0000
      4 C4          4.2840   -2.7247    1.6019 C.2       1 <0>         0.0000
      5 C5          5.3928   -3.4026    2.0551 C.2       1 <0>         0.0000
      6 C6          4.3878   -1.3651    2.0756 C.ar      1 <0>         0.0000
      7 C7          3.5975   -0.1944    1.9418 C.ar      1 <0>         0.0000
      8 C8          5.6073   -1.2842    2.8085 C.ar      1 <0>         0.0000
      9 C9          0.4720    0.4230    0.2735 C.2       1 <0>         0.0000
     10 C10         0.3301   -0.9428    0.5053 C.2       1 <0>         0.0000
     11 C11         2.2983   -0.1888    1.2690 C.2       1 <0>         0.0000
     12 C12        -0.4480    1.4154   -0.3491 C.2       1 <0>         0.0000
     13 C13        -0.7216   -1.9699    0.2122 C.3       1 <0>         0.0000
     14 C14        -2.0428   -1.3915   -0.3002 C.3       1 <0>         0.0000
     15 C15        -1.8523   -0.4109   -1.4660 C.3       1 <0>         0.0000
     16 N1          1.6912    0.8633    0.7573 N.2       1 <0>         0.0000
     17 N2          6.1866   -2.5429    2.7892 N.pl3     1 <0>         0.0000
     18 N3          1.5044   -1.3125    1.1281 N.pl3     1 <0>         0.0000
     19 N4         -1.5506    0.9482   -1.0347 N.am      1 <0>         0.0000
     20 O1         -0.2573    2.6258   -0.2439 O.2       1 <0>         0.0000
     21 H1          5.6212    1.9908    3.6256 H         1 <0>         0.0000
     22 H2          3.4727    1.8919    2.3831 H         1 <0>         0.0000
     23 H3          7.0072   -0.0577    3.9341 H         1 <0>         0.0000
     24 H4          3.5335   -3.1500    0.9495 H         1 <0>         0.0000
     25 H5          5.6866   -4.4325    1.9008 H         1 <0>         0.0000
     26 H6         -0.3275   -2.6720   -0.5363 H         1 <0>         0.0000
     27 H7         -0.9138   -2.5649    1.1147 H         1 <0>         0.0000
     28 H8         -2.6748   -2.2244   -0.6278 H         1 <0>         0.0000
     29 H9         -2.5748   -0.8752    0.5052 H         1 <0>         0.0000
     30 H10        -1.0794   -0.7918   -2.1497 H         1 <0>         0.0000
     31 H11        -2.7802   -0.3497   -2.0402 H         1 <0>         0.0000
     32 H12         7.0719   -2.7824    3.2116 H         1 <0>         0.0000
     33 H13         1.6876   -2.2177    1.5423 H         1 <0>         0.0000
     34 H14        -2.0749    1.7040   -1.4588 H         1 <0>         0.0000
@<TRIPOS>BOND
     1    1    2 ar
     2    1    3 ar
     3    1   21 1
     4    2    7 ar
     5    2   22 1
     6    3    8 ar
     7    3   23 1
     8    4    5 2
     9    4    6 1
    10    4   24 1
    11    5   17 1
    12    5   25 1
    13    6    7 ar
    14    6    8 ar
    15    7   11 1
    16    8   17 1
    17    9   10 2
    18    9   12 1
    19    9   16 1
    20   10   13 1
    21   10   18 1
    22   11   16 2
    23   11   18 1
    24   12   19 am
    25   12   20 2
    26   13   14 1
    27   13   26 1
    28   13   27 1
    29   14   15 1
    30   14   28 1
    31   14   29 1
    32   15   19 1
    33   15   30 1
    34   15   31 1
    35   17   32 1
    36   18   33 1
    37   19   34 1
