@<TRIPOS>MOLECULE
*****
   28    27     0     0     0
SMALL
NO_CHARGES

@<TRIPOS>ATOM
      1 C1         -0.6386   -2.9108    1.2120 C.2       1 <0>         0.0000
      2 C2         -4.1420   -2.7489    0.9400 C.2       1 <0>         0.0000
      3 C3          1.7383   -2.2104    1.5269 C.3       1 <0>         0.0000
      4 C4          1.0741   -3.6529   -0.4560 C.3       1 <0>         0.0000
      5 C5         -3.3355   -0.8595    2.4114 C.3       1 <0>         0.0000
      6 C6         -4.8055   -3.9795   -1.0910 C.3       1 <0>         0.0000
      7 C7          0.6481   -2.5163    0.4865 C.3       1 <0>         0.0000
      8 C8         -2.9619   -2.1953    1.7633 C.3       1 <0>         0.0000
      9 N1         -3.8251   -3.2801   -0.2730 N.am      1 <0>         0.0000
     10 N2         -1.7164   -2.0811    1.0055 N.am      1 <0>         0.0000
     11 O1         -0.7084   -3.9155    1.9173 O.2       1 <0>         0.0000
     12 O2         -5.2882   -2.7055    1.3869 O.2       1 <0>         0.0000
     13 H1          1.9186   -3.0898    2.1512 H         1 <0>         0.0000
     14 H2          2.6739   -1.9381    1.0277 H         1 <0>         0.0000
     15 H3          1.4477   -1.3818    2.1816 H         1 <0>         0.0000
     16 H4          1.2258   -4.5748    0.1118 H         1 <0>         0.0000
     17 H5          2.0094   -3.3963   -0.9638 H         1 <0>         0.0000
     18 H6          0.3149   -3.8461   -1.2223 H         1 <0>         0.0000
     19 H7         -3.4643   -0.0770    1.6539 H         1 <0>         0.0000
     20 H8         -4.2795   -0.9622    2.9482 H         1 <0>         0.0000
     21 H9         -2.5529   -0.5473    3.1089 H         1 <0>         0.0000
     22 H10        -4.7935   -5.0598   -0.9019 H         1 <0>         0.0000
     23 H11        -4.6017   -3.7994   -2.1504 H         1 <0>         0.0000
     24 H12        -5.7953   -3.5955   -0.8422 H         1 <0>         0.0000
     25 H13         0.4672   -1.6128   -0.1105 H         1 <0>         0.0000
     26 H14        -2.7725   -2.9417    2.5401 H         1 <0>         0.0000
     27 H15        -2.8422   -3.3685   -0.4934 H         1 <0>         0.0000
     28 H16        -1.5562   -1.2150    0.5060 H         1 <0>         0.0000
@<TRIPOS>BOND
     1    1    7 1
     2    1   10 am
     3    1   11 2
     4    2    8 1
     5    2    9 am
     6    2   12 2
     7    3    7 1
     8    3   13 1
     9    3   14 1
    10    3   15 1
    11    4    7 1
    12    4   16 1
    13    4   17 1
    14    4   18 1
    15    5    8 1
    16    5   19 1
    17    5   20 1
    18    5   21 1
    19    6    9 1
    20    6   22 1
    21    6   23 1
    22    6   24 1
    23    7   25 1
    24    8   10 1
    25    8   26 1
    26    9   27 1
    27   10   28 1
