@<TRIPOS>MOLECULE
*****
   16    16     0     0     0
SMALL
NO_CHARGES

@<TRIPOS>ATOM
      1 C1          1.3600   -0.4242   -1.7196 C.2       1 <0>         0.0000
      2 C2          0.3162   -0.6291   -0.7745 C.2       1 <0>         0.0000
      3 C3          1.4393   -1.6131   -2.4244 C.2       1 <0>         0.0000
      4 C4          0.2165   -3.7876   -2.2037 C.2       1 <0>         0.0000
      5 C5         -0.8951   -4.4505   -1.4321 C.3       1 <0>         0.0000
      6 N1         -0.2312   -1.8284   -0.8503 N.2       1 <0>         0.0000
      7 N2          0.4687   -2.4513   -1.8791 N.am      1 <0>         0.0000
      8 N3          2.2074   -1.9768   -3.5045 N.pl3     1 <0>         0.0000
      9 O1          0.8810   -4.3564   -3.0647 O.2       1 <0>         0.0000
     10 H1          1.9538    0.4657   -1.8776 H         1 <0>         0.0000
     11 H2         -0.0534    0.0743   -0.0367 H         1 <0>         0.0000
     12 H3         -1.8278   -3.8933   -1.5483 H         1 <0>         0.0000
     13 H4         -0.6648   -4.4563   -0.3638 H         1 <0>         0.0000
     14 H5         -1.0049   -5.4687   -1.8049 H         1 <0>         0.0000
     15 H6          2.2454   -2.9745   -3.6889 H         1 <0>         0.0000
     16 H7          3.0821   -1.4765   -3.5945 H         1 <0>         0.0000
@<TRIPOS>BOND
     1    1    2 1
     2    1    3 2
     3    1   10 1
     4    2    6 2
     5    2   11 1
     6    3    7 1
     7    3    8 1
     8    4    5 1
     9    4    7 am
    10    4    9 2
    11    5   12 1
    12    5   13 1
    13    5   14 1
    14    6    7 1
    15    8   15 1
    16    8   16 1
