@<TRIPOS>MOLECULE
*****
   36    37     0     0     0
SMALL
NO_CHARGES

@<TRIPOS>ATOM
      1 C1          0.5539    0.8478   -0.6890 C.2       1 <0>         0.0000
      2 C2         -2.2028    0.5080   -3.4147 C.3       1 <0>         0.0000
      3 C3         -1.5616   -0.6773   -4.1497 C.3       1 <0>         0.0000
      4 C4         -1.6046    0.6724   -2.0105 C.3       1 <0>         0.0000
      5 C5         -0.0319   -0.5451   -4.1510 C.3       1 <0>         0.0000
      6 C6          2.4856    1.3971    0.7106 C.3       1 <0>         0.0000
      7 C7          2.7243    1.6355   -1.7048 C.3       1 <0>         0.0000
      8 C8          3.6709    0.4327    0.7205 C.3       1 <0>         0.0000
      9 C9          3.9112    0.6712   -1.6610 C.3       1 <0>         0.0000
     10 C10        -0.0748    0.7689   -2.0899 C.3       1 <0>         0.0000
     11 C11         5.7671   -0.1248   -0.3405 C.3       1 <0>         0.0000
     12 N1          0.5522   -0.3560   -2.8134 N.3       1 <0>         0.0000
     13 N2          1.8163    1.3684   -0.5903 N.am      1 <0>         0.0000
     14 N3          4.5976    0.7450   -0.3697 N.3       1 <0>         0.0000
     15 O1         -0.0744    0.4548    0.2998 O.2       1 <0>         0.0000
     16 H1         -2.0352    1.4258   -3.9962 H         1 <0>         0.0000
     17 H2         -3.2886    0.3756   -3.3482 H         1 <0>         0.0000
     18 H3         -1.8410   -1.6141   -3.6482 H         1 <0>         0.0000
     19 H4         -1.9328   -0.7437   -5.1800 H         1 <0>         0.0000
     20 H5         -2.0061    1.5649   -1.5183 H         1 <0>         0.0000
     21 H6         -1.8717   -0.1788   -1.3760 H         1 <0>         0.0000
     22 H7          0.4389   -1.4242   -4.6043 H         1 <0>         0.0000
     23 H8          0.2600    0.3205   -4.7614 H         1 <0>         0.0000
     24 H9          1.7578    1.1291    1.4752 H         1 <0>         0.0000
     25 H10         2.8457    2.4169    0.8944 H         1 <0>         0.0000
     26 H11         3.0897    2.6670   -1.6199 H         1 <0>         0.0000
     27 H12         2.2091    1.5152   -2.6536 H         1 <0>         0.0000
     28 H13         4.2046    0.5258    1.6729 H         1 <0>         0.0000
     29 H14         3.2913   -0.6050    0.6481 H         1 <0>         0.0000
     30 H15         3.5392   -0.3485   -1.8740 H         1 <0>         0.0000
     31 H16         4.6209    0.9416   -2.4511 H         1 <0>         0.0000
     32 H17         0.1761    1.6807   -2.6483 H         1 <0>         0.0000
     33 H18         6.2845   -0.0152    0.6182 H         1 <0>         0.0000
     34 H19         6.4620    0.1635   -1.1361 H         1 <0>         0.0000
     35 H20         5.5144   -1.1938   -0.4751 H         1 <0>         0.0000
     36 H21         0.3998   -1.2030   -2.2649 H         1 <0>         0.0000
@<TRIPOS>BOND
     1    1   10 1
     2    1   13 am
     3    1   15 2
     4    2    3 1
     5    2    4 1
     6    2   16 1
     7    2   17 1
     8    3    5 1
     9    3   18 1
    10    3   19 1
    11    4   10 1
    12    4   20 1
    13    4   21 1
    14    5   12 1
    15    5   22 1
    16    5   23 1
    17    6    8 1
    18    6   13 1
    19    6   24 1
    20    6   25 1
    21    7    9 1
    22    7   13 1
    23    7   26 1
    24    7   27 1
    25    8   14 1
    26    8   28 1
    27    8   29 1
    28    9   14 1
    29    9   30 1
    30    9   31 1
    31   10   12 1
    32   10   32 1
    33   11   14 1
    34   11   33 1
    35   11   34 1
    36   11   35 1
    37   12   36 1
