@<TRIPOS>MOLECULE
*****
   34    35     0     0     0
SMALL
NO_CHARGES

@<TRIPOS>ATOM
      1 C1         -5.4225   -0.4499   -0.6894 C.2       1 <0>         0.0000
      2 C2         -5.3250    0.7636    0.0506 C.2       1 <0>         0.0000
      3 C3         -4.4140   -0.8346   -1.5303 C.2       1 <0>         0.0000
      4 C4         -4.2030    1.5272   -0.1041 C.2       1 <0>         0.0000
      5 C5         -3.2144   -0.0433   -1.7038 C.2       1 <0>         0.0000
      6 C6         -1.3691    2.2405    0.3414 C.2       1 <0>         0.0000
      7 C7         -0.1914    1.3139    2.2673 C.3       1 <0>         0.0000
      8 C8         -0.4403   -0.1009    0.2999 C.3       1 <0>         0.0000
      9 C9         -0.9648    0.2797    3.0872 C.3       1 <0>         0.0000
     10 C10        -1.2122   -1.1199    1.1391 C.3       1 <0>         0.0000
     11 C11        -1.4670   -2.0680    3.3439 C.3       1 <0>         0.0000
     12 C12        -2.0009    2.0232   -1.0401 C.3       1 <0>         0.0000
     13 N1         -3.1829    1.1497   -0.9383 N.am      1 <0>         0.0000
     14 N2         -0.6076    1.2397    0.8649 N.am      1 <0>         0.0000
     15 N3         -0.7816   -1.0651    2.5373 N.3       1 <0>         0.0000
     16 O1         -2.2605   -0.3488   -2.4339 O.2       1 <0>         0.0000
     17 O2         -1.6006    3.2982    0.9389 O.2       1 <0>         0.0000
     18 H1         -6.3065   -1.0746   -0.5841 H         1 <0>         0.0000
     19 H2         -6.1127    1.0915    0.7189 H         1 <0>         0.0000
     20 H3         -4.4597   -1.7527   -2.1063 H         1 <0>         0.0000
     21 H4         -4.0480    2.4613    0.4265 H         1 <0>         0.0000
     22 H5         -0.3799    2.3229    2.6312 H         1 <0>         0.0000
     23 H6          0.8825    1.1027    2.3232 H         1 <0>         0.0000
     24 H7          0.6272   -0.3485    0.3306 H         1 <0>         0.0000
     25 H8         -0.7661   -0.1426   -0.7372 H         1 <0>         0.0000
     26 H9         -0.5980    0.2900    4.1194 H         1 <0>         0.0000
     27 H10        -2.0339    0.5691    3.1088 H         1 <0>         0.0000
     28 H11        -2.2977   -0.9252    1.0379 H         1 <0>         0.0000
     29 H12        -1.0195   -2.1243    0.7477 H         1 <0>         0.0000
     30 H13        -1.0874   -2.0387    4.3704 H         1 <0>         0.0000
     31 H14        -1.2705   -3.0652    2.9374 H         1 <0>         0.0000
     32 H15        -2.5630   -1.9192    3.3770 H         1 <0>         0.0000
     33 H16        -1.3317    1.5740   -1.7716 H         1 <0>         0.0000
     34 H17        -2.3111    3.0077   -1.3933 H         1 <0>         0.0000
@<TRIPOS>BOND
     1    1    3 2
     2    1    2 1
     3    1   18 1
     4    2    4 2
     5    2   19 1
     6    3    5 1
     7    3   20 1
     8    4   13 1
     9    4   21 1
    10    5   13 am
    11    5   16 2
    12    6   12 1
    13    6   14 am
    14    6   17 2
    15    7    9 1
    16    7   14 1
    17    7   22 1
    18    7   23 1
    19    8   10 1
    20    8   14 1
    21    8   24 1
    22    8   25 1
    23    9   15 1
    24    9   26 1
    25    9   27 1
    26   10   15 1
    27   10   28 1
    28   10   29 1
    29   11   15 1
    30   11   30 1
    31   11   31 1
    32   11   32 1
    33   12   13 1
    34   12   33 1
    35   12   34 1
