@<TRIPOS>MOLECULE
*****
   22    22     0     0     0
SMALL
NO_CHARGES

@<TRIPOS>ATOM
      1 C1         -1.6052   -1.2599    0.5757 C.ar      1 <0>         0.0000
      2 C2         -0.3335   -1.0093    0.0628 C.ar      1 <0>         0.0000
      3 C3         -1.1292   -3.4978    0.6658 C.ar      1 <0>         0.0000
      4 C4          0.1782   -3.2385    0.1434 C.ar      1 <0>         0.0000
      5 C5         -1.6485   -4.8871    0.9729 C.2       1 <0>         0.0000
      6 C6          2.3172   -3.9759   -0.8315 C.3       1 <0>         0.0000
      7 C7         -1.2060   -7.0150    2.1214 C.3       1 <0>         0.0000
      8 N1         -1.9966   -2.5089    0.8623 N.ar      1 <0>         0.0000
      9 N2          0.5521   -1.9847   -0.1639 N.ar      1 <0>         0.0000
     10 N3          1.1079   -4.2340   -0.0554 N.pl3     1 <0>         0.0000
     11 N4         -0.7569   -5.7180    1.6208 N.am      1 <0>         0.0000
     12 O1         -2.7675   -5.2559    0.6391 O.2       1 <0>         0.0000
     13 H1         -2.3188   -0.4588    0.7514 H         1 <0>         0.0000
     14 H2         -0.0165    0.0032   -0.1827 H         1 <0>         0.0000
     15 H3          2.9132   -3.1982   -0.3502 H         1 <0>         0.0000
     16 H4          2.0932   -3.6455   -1.8536 H         1 <0>         0.0000
     17 H5          2.9007   -4.8986   -0.8692 H         1 <0>         0.0000
     18 H6         -1.8931   -6.9110    2.9693 H         1 <0>         0.0000
     19 H7         -0.3344   -7.5977    2.4285 H         1 <0>         0.0000
     20 H8         -1.7305   -7.5425    1.3234 H         1 <0>         0.0000
     21 H9          0.7403   -5.1766   -0.0807 H         1 <0>         0.0000
     22 H10         0.0088   -5.2695    2.1116 H         1 <0>         0.0000
@<TRIPOS>BOND
     1    1    2 ar
     2    1    8 ar
     3    1   13 1
     4    2    9 ar
     5    2   14 1
     6    3    4 ar
     7    3    5 1
     8    3    8 ar
     9    4    9 ar
    10    4   10 1
    11    5   11 am
    12    5   12 2
    13    6   10 1
    14    6   15 1
    15    6   16 1
    16    6   17 1
    17    7   11 1
    18    7   18 1
    19    7   19 1
    20    7   20 1
    21   10   21 1
    22   11   22 1
