@<TRIPOS>MOLECULE
*****
   28    29     0     0     0
SMALL
NO_CHARGES

@<TRIPOS>ATOM
      1 C1          2.1873   -0.9084   -1.0868 C.ar      1 <0>         0.0000
      2 C2          0.8761   -0.8672   -0.5810 C.ar      1 <0>         0.0000
      3 C3          2.7848   -2.1354   -1.3348 C.ar      1 <0>         0.0000
      4 C4          0.1750   -2.0395   -0.3281 C.ar      1 <0>         0.0000
      5 C5          0.7124   -5.6704   -0.5891 C.2       1 <0>         0.0000
      6 C6          2.0999   -3.3390   -1.0886 C.ar      1 <0>         0.0000
      7 C7          1.9850   -5.8081   -1.0807 C.2       1 <0>         0.0000
      8 C8          0.7805   -3.2886   -0.5796 C.ar      1 <0>         0.0000
      9 C9          2.7780   -4.6242   -1.3682 C.2       1 <0>         0.0000
     10 C10         2.4467   -7.2249   -1.2804 C.2       1 <0>         0.0000
     11 C11        -1.2637   -4.4690    0.1893 C.3       1 <0>         0.0000
     12 C12         4.2668   -8.6884   -2.0009 C.3       1 <0>         0.0000
     13 N1          0.1021   -4.4849   -0.3361 N.pl3     1 <0>         0.0000
     14 N2          3.7037   -7.3703   -1.7608 N.am      1 <0>         0.0000
     15 O1          3.9438   -4.6452   -1.8170 O.2       1 <0>         0.0000
     16 O2          1.7083   -8.1859   -1.0149 O.2       1 <0>         0.0000
     17 H1          2.7254    0.0150   -1.2807 H         1 <0>         0.0000
     18 H2          0.3993    0.0891   -0.3833 H         1 <0>         0.0000
     19 H3          3.7949   -2.2105   -1.7250 H         1 <0>         0.0000
     20 H4         -0.8344   -1.9803    0.0617 H         1 <0>         0.0000
     21 H5          0.1430   -6.5714   -0.3840 H         1 <0>         0.0000
     22 H6         -1.9373   -3.9507   -0.4995 H         1 <0>         0.0000
     23 H7         -1.2972   -3.9753    1.1651 H         1 <0>         0.0000
     24 H8         -1.6064   -5.4962    0.3060 H         1 <0>         0.0000
     25 H9          4.2610   -9.2875   -1.0848 H         1 <0>         0.0000
     26 H10         5.2957   -8.5705   -2.3470 H         1 <0>         0.0000
     27 H11         3.6921   -9.2306   -2.7595 H         1 <0>         0.0000
     28 H12         4.2266   -6.5157   -1.9522 H         1 <0>         0.0000
@<TRIPOS>BOND
     1    1    2 ar
     2    1    3 ar
     3    1   17 1
     4    2    4 ar
     5    2   18 1
     6    3    6 ar
     7    3   19 1
     8    4    8 ar
     9    4   20 1
    10    5    7 2
    11    5   13 1
    12    5   21 1
    13    6    8 ar
    14    6    9 1
    15    7    9 1
    16    7   10 1
    17    8   13 1
    18    9   15 2
    19   10   14 am
    20   10   16 2
    21   11   13 1
    22   11   22 1
    23   11   23 1
    24   11   24 1
    25   12   14 1
    26   12   25 1
    27   12   26 1
    28   12   27 1
    29   14   28 1
