@<TRIPOS>MOLECULE
*****
   28    27     0     0     0
SMALL
NO_CHARGES

@<TRIPOS>ATOM
      1 C1         -0.3555   -2.6012    1.6376 C.2       1 <0>         0.0000
      2 C2         -3.8413   -3.0550    1.3358 C.2       1 <0>         0.0000
      3 C3          1.8647   -1.4580    1.6637 C.3       1 <0>         0.0000
      4 C4          1.5381   -3.6020    0.3406 C.3       1 <0>         0.0000
      5 C5         -3.3559   -0.6923    2.0921 C.3       1 <0>         0.0000
      6 C6         -4.2415   -4.9840   -0.1482 C.3       1 <0>         0.0000
      7 C7          0.8921   -2.2895    0.8106 C.3       1 <0>         0.0000
      8 C8         -2.7811   -2.1009    1.9215 C.3       1 <0>         0.0000
      9 N1         -3.3995   -3.9219    0.3831 N.am      1 <0>         0.0000
     10 N2         -1.5325   -2.0716    1.1607 N.am      1 <0>         0.0000
     11 O1         -0.3099   -3.2951    2.6515 O.2       1 <0>         0.0000
     12 O2         -5.0046   -3.0163    1.7361 O.2       1 <0>         0.0000
     13 H1          2.1445   -2.0137    2.5628 H         1 <0>         0.0000
     14 H2          2.7728   -1.2339    1.0945 H         1 <0>         0.0000
     15 H3          1.4153   -0.5091    1.9756 H         1 <0>         0.0000
     16 H4          1.7989   -4.2220    1.2025 H         1 <0>         0.0000
     17 H5          2.4488   -3.3951   -0.2308 H         1 <0>         0.0000
     18 H6          0.8600   -4.1774   -0.2996 H         1 <0>         0.0000
     19 H7         -3.5586   -0.2295    1.1188 H         1 <0>         0.0000
     20 H8         -4.2981   -0.7426    2.6395 H         1 <0>         0.0000
     21 H9         -2.6500   -0.0618    2.6404 H         1 <0>         0.0000
     22 H10        -4.0882   -5.9281    0.3884 H         1 <0>         0.0000
     23 H11        -4.0240   -5.1362   -1.2094 H         1 <0>         0.0000
     24 H12        -5.2835   -4.6844   -0.0316 H         1 <0>         0.0000
     25 H13         0.6065   -1.7016   -0.0717 H         1 <0>         0.0000
     26 H14        -2.5238   -2.5149    2.9008 H         1 <0>         0.0000
     27 H15        -2.4040   -3.9430    0.2069 H         1 <0>         0.0000
     28 H16        -1.4765   -1.4180    0.3893 H         1 <0>         0.0000
@<TRIPOS>BOND
     1    1    7 1
     2    1   10 am
     3    1   11 2
     4    2    8 1
     5    2    9 am
     6    2   12 2
     7    3    7 1
     8    3   13 1
     9    3   14 1
    10    3   15 1
    11    4    7 1
    12    4   16 1
    13    4   17 1
    14    4   18 1
    15    5    8 1
    16    5   19 1
    17    5   20 1
    18    5   21 1
    19    6    9 1
    20    6   22 1
    21    6   23 1
    22    6   24 1
    23    7   25 1
    24    8   10 1
    25    8   26 1
    26    9   27 1
    27   10   28 1
