@<TRIPOS>MOLECULE
*****
   27    28     0     0     0
SMALL
NO_CHARGES

@<TRIPOS>ATOM
      1 C1          1.9719   -0.9585   -0.1820 C.ar      1 <0>         0.0000
      2 C2          1.6484    0.2337    0.4739 C.ar      1 <0>         0.0000
      3 C3          2.3070   -2.0953    0.5627 C.ar      1 <0>         0.0000
      4 C4         -0.7053    0.8907    7.8057 C.ar      1 <0>         0.0000
      5 C5          0.2631    0.7354    8.8054 C.ar      1 <0>         0.0000
      6 C6          1.6436    0.2856    1.8698 C.ar      1 <0>         0.0000
      7 C7          2.3133   -2.0429    1.9566 C.ar      1 <0>         0.0000
      8 C8         -0.3652    0.6185    6.4832 C.ar      1 <0>         0.0000
      9 C9          1.5456    0.3090    8.4710 C.ar      1 <0>         0.0000
     10 C10         1.9664   -0.8566    2.6208 C.ar      1 <0>         0.0000
     11 C11         0.9297    0.2040    6.1309 C.ar      1 <0>         0.0000
     12 C12         1.9073    0.0450    7.1397 C.ar      1 <0>         0.0000
     13 C13         1.9840   -0.8768    4.1168 C.2       1 <0>         0.0000
     14 N1          1.1950    0.0481    4.7380 N.am      1 <0>         0.0000
     15 O1          2.6750   -1.7029    4.7374 O.2       1 <0>         0.0000
     16 O2          3.1987   -0.2961    6.8977 O.3       1 <0>         0.0000
     17 H1          1.9733   -0.9981   -1.2681 H         1 <0>         0.0000
     18 H2          1.4114    1.1252   -0.1003 H         1 <0>         0.0000
     19 H3          2.5675   -3.0204    0.0556 H         1 <0>         0.0000
     20 H4         -1.7126    1.2130    8.0522 H         1 <0>         0.0000
     21 H5          0.0174    0.9417    9.8436 H         1 <0>         0.0000
     22 H6          1.4323    1.2331    2.3596 H         1 <0>         0.0000
     23 H7          2.5844   -2.9100    2.5503 H         1 <0>         0.0000
     24 H8         -1.1122    0.7274    5.6988 H         1 <0>         0.0000
     25 H9          2.3134    0.1805    9.2282 H         1 <0>         0.0000
     26 H10         0.5574    0.5543    4.1373 H         1 <0>         0.0000
     27 H11         3.2180   -0.9105    6.1197 H         1 <0>         0.0000
@<TRIPOS>BOND
     1    1    3 ar
     2    1    2 ar
     3    1   17 1
     4    2    6 ar
     5    2   18 1
     6    3    7 ar
     7    3   19 1
     8    4    5 ar
     9    4    8 ar
    10    4   20 1
    11    5    9 ar
    12    5   21 1
    13    6   10 ar
    14    6   22 1
    15    7   10 ar
    16    7   23 1
    17    8   11 ar
    18    8   24 1
    19    9   12 ar
    20    9   25 1
    21   10   13 1
    22   11   12 ar
    23   11   14 1
    24   12   16 1
    25   13   14 am
    26   13   15 2
    27   14   26 1
    28   16   27 1
