@<TRIPOS>MOLECULE
*****
   28    27     0     0     0
SMALL
NO_CHARGES

@<TRIPOS>ATOM
      1 C1         -1.6025   -1.5387   -0.4279 C.2       1 <0>         0.0000
      2 C2         -3.7933   -3.6139    0.8529 C.2       1 <0>         0.0000
      3 C3          0.3558   -2.1179   -1.8708 C.3       1 <0>         0.0000
      4 C4         -0.0110    0.2712   -1.0843 C.3       1 <0>         0.0000
      5 C5         -4.1865   -1.1232    1.2779 C.3       1 <0>         0.0000
      6 C6         -4.5418   -4.8779   -1.1043 C.3       1 <0>         0.0000
      7 C7         -0.1387   -1.2186   -0.7266 C.3       1 <0>         0.0000
      8 C8         -3.1995   -2.2932    1.3915 C.3       1 <0>         0.0000
      9 N1         -4.0033   -3.6757   -0.4839 N.am      1 <0>         0.0000
     10 N2         -1.8722   -1.9722    0.8336 N.am      1 <0>         0.0000
     11 O1         -2.4758   -1.4049   -1.2975 O.2       1 <0>         0.0000
     12 O2         -4.0840   -4.5262    1.6314 O.2       1 <0>         0.0000
     13 H1         -0.2474   -1.9512   -2.7674 H         1 <0>         0.0000
     14 H2          1.4008   -1.8914   -2.1062 H         1 <0>         0.0000
     15 H3          0.2880   -3.1784   -1.6056 H         1 <0>         0.0000
     16 H4         -0.6281    0.5023   -1.9568 H         1 <0>         0.0000
     17 H5          1.0301    0.5166   -1.3179 H         1 <0>         0.0000
     18 H6         -0.3354    0.9115   -0.2571 H         1 <0>         0.0000
     19 H7         -4.3876   -0.8658    0.2378 H         1 <0>         0.0000
     20 H8         -5.1276   -1.3987    1.7630 H         1 <0>         0.0000
     21 H9         -3.7801   -0.2414    1.7835 H         1 <0>         0.0000
     22 H10        -4.7050   -4.6796   -2.1655 H         1 <0>         0.0000
     23 H11        -5.4915   -5.1554   -0.6386 H         1 <0>         0.0000
     24 H12        -3.8545   -5.7247   -0.9979 H         1 <0>         0.0000
     25 H13         0.4671   -1.4182    0.1666 H         1 <0>         0.0000
     26 H14        -3.0264   -2.5006    2.4485 H         1 <0>         0.0000
     27 H15        -3.6736   -2.9002   -1.0569 H         1 <0>         0.0000
     28 H16        -1.0809   -2.1271    1.4433 H         1 <0>         0.0000
@<TRIPOS>BOND
     1    1    7 1
     2    1   10 am
     3    1   11 2
     4    2    8 1
     5    2    9 am
     6    2   12 2
     7    3    7 1
     8    3   13 1
     9    3   14 1
    10    3   15 1
    11    4    7 1
    12    4   16 1
    13    4   17 1
    14    4   18 1
    15    5    8 1
    16    5   19 1
    17    5   20 1
    18    5   21 1
    19    6    9 1
    20    6   22 1
    21    6   23 1
    22    6   24 1
    23    7   25 1
    24    8   10 1
    25    8   26 1
    26    9   27 1
    27   10   28 1
