@<TRIPOS>MOLECULE
*****
   24    24     0     0     0
SMALL
NO_CHARGES

@<TRIPOS>ATOM
      1 C1          1.5464   -1.0443   -0.3223 C.ar      1 <0>         0.0000
      2 C2          0.5971   -0.3809    0.4610 C.ar      1 <0>         0.0000
      3 C3          2.6929   -1.5724    0.2570 C.ar      1 <0>         0.0000
      4 C4          1.9354   -0.8446    2.4674 C.ar      1 <0>         0.0000
      5 C5          0.8026   -0.2864    1.8372 C.ar      1 <0>         0.0000
      6 C6          2.9008   -1.4676    1.6434 C.ar      1 <0>         0.0000
      7 C7          1.9947   -0.9319    3.9720 C.2       1 <0>         0.0000
      8 C8          1.6346    0.2274    6.0999 C.3       1 <0>         0.0000
      9 C9          4.7742   -1.4684    3.1999 C.3       1 <0>         0.0000
     10 N1          1.8209    0.2417    4.6535 N.am      1 <0>         0.0000
     11 O1          2.2196   -1.9993    4.5449 O.2       1 <0>         0.0000
     12 O2         -0.1237    0.3483    2.6449 O.3       1 <0>         0.0000
     13 O3          4.0740   -2.0082    2.0711 O.3       1 <0>         0.0000
     14 H1          1.3954   -1.1270   -1.3951 H         1 <0>         0.0000
     15 H2         -0.2932    0.0518    0.0087 H         1 <0>         0.0000
     16 H3          3.4584   -2.0606   -0.3373 H         1 <0>         0.0000
     17 H4          0.6576   -0.1836    6.3833 H         1 <0>         0.0000
     18 H5          1.7205    1.2490    6.4776 H         1 <0>         0.0000
     19 H6          2.4088   -0.3905    6.5570 H         1 <0>         0.0000
     20 H7          5.8355   -1.6103    2.9831 H         1 <0>         0.0000
     21 H8          4.4980   -1.9976    4.1129 H         1 <0>         0.0000
     22 H9          4.5677   -0.3992    3.3163 H         1 <0>         0.0000
     23 H10         1.3912    0.9995    4.1383 H         1 <0>         0.0000
     24 H11        -0.8867    0.5972    2.0997 H         1 <0>         0.0000
@<TRIPOS>BOND
     1    1    2 ar
     2    1    3 ar
     3    1   14 1
     4    2    5 ar
     5    2   15 1
     6    3    6 ar
     7    3   16 1
     8    4    5 ar
     9    4    6 ar
    10    4    7 1
    11    5   12 1
    12    6   13 1
    13    7   10 am
    14    7   11 2
    15    8   10 1
    16    8   17 1
    17    8   18 1
    18    8   19 1
    19    9   13 1
    20    9   20 1
    21    9   21 1
    22    9   22 1
    23   10   23 1
    24   12   24 1
