@<TRIPOS>MOLECULE
*****
   27    27     0     0     0
SMALL
NO_CHARGES

@<TRIPOS>ATOM
      1 C1         -0.5743   -0.7625   -1.5177 C.2       1 <0>         0.0000
      2 C2          1.9345    0.2405    1.0624 C.3       1 <0>         0.0000
      3 C3          1.1175   -0.9034    0.4044 C.3       1 <0>         0.0000
      4 C4          1.0064    1.4588    0.9747 C.3       1 <0>         0.0000
      5 C5         -0.1491   -0.2158   -0.1467 C.3       1 <0>         0.0000
      6 C6         -2.5611   -2.9979   -2.8883 C.3       1 <0>         0.0000
      7 C7         -0.9033    2.1053   -0.4119 C.3       1 <0>         0.0000
      8 C8         -2.5038   -1.4672   -2.9017 C.3       1 <0>         0.0000
      9 N1          0.2188    1.2008   -0.2315 N.3       1 <0>         0.0000
     10 N2         -1.9245   -0.9083   -1.6828 N.am      1 <0>         0.0000
     11 O1          0.2331   -1.0275   -2.4056 O.2       1 <0>         0.0000
     12 H1          2.2198    0.0186    2.0943 H         1 <0>         0.0000
     13 H2          2.8492    0.4255    0.4937 H         1 <0>         0.0000
     14 H3          1.6688   -1.3599   -0.4188 H         1 <0>         0.0000
     15 H4          0.8503   -1.6902    1.1151 H         1 <0>         0.0000
     16 H5          0.3596    1.5197    1.8734 H         1 <0>         0.0000
     17 H6          1.5414    2.4099    0.8842 H         1 <0>         0.0000
     18 H7         -0.9861   -0.3495    0.5716 H         1 <0>         0.0000
     19 H8         -1.5544   -3.4111   -2.7832 H         1 <0>         0.0000
     20 H9         -3.1765   -3.3646   -2.0592 H         1 <0>         0.0000
     21 H10        -2.9918   -3.3724   -3.8235 H         1 <0>         0.0000
     22 H11        -1.4111    1.8937   -1.3572 H         1 <0>         0.0000
     23 H12        -0.5393    3.1366   -0.4494 H         1 <0>         0.0000
     24 H13        -1.6473    2.0330    0.4073 H         1 <0>         0.0000
     25 H14        -3.5050   -1.0415   -3.0258 H         1 <0>         0.0000
     26 H15        -1.8881   -1.1233   -3.7357 H         1 <0>         0.0000
     27 H16        -2.5228   -0.7586   -0.8815 H         1 <0>         0.0000
@<TRIPOS>BOND
     1    1    5 1
     2    1   10 am
     3    1   11 2
     4    2    3 1
     5    2    4 1
     6    2   12 1
     7    2   13 1
     8    3    5 1
     9    3   14 1
    10    3   15 1
    11    4    9 1
    12    4   16 1
    13    4   17 1
    14    5    9 1
    15    5   18 1
    16    6    8 1
    17    6   19 1
    18    6   20 1
    19    6   21 1
    20    7    9 1
    21    7   22 1
    22    7   23 1
    23    7   24 1
    24    8   10 1
    25    8   25 1
    26    8   26 1
    27   10   27 1
