@<TRIPOS>MOLECULE
*****
   28    27     0     0     0
SMALL
NO_CHARGES

@<TRIPOS>ATOM
      1 C1         -0.1225   -1.5940    1.8714 C.2       1 <0>         0.0000
      2 C2         -3.2744   -3.6293    2.0134 C.2       1 <0>         0.0000
      3 C3          2.0617   -2.4874    1.0684 C.3       1 <0>         0.0000
      4 C4          0.4089   -1.6423   -0.6702 C.3       1 <0>         0.0000
      5 C5         -2.9824   -1.4346    3.1898 C.3       1 <0>         0.0000
      6 C6         -4.8077   -4.0934    0.1416 C.3       1 <0>         0.0000
      7 C7          0.9312   -1.4858    0.7643 C.3       1 <0>         0.0000
      8 C8         -2.2511   -2.6485    2.5920 C.3       1 <0>         0.0000
      9 N1         -3.7062   -3.3459    0.7409 N.am      1 <0>         0.0000
     10 N2         -1.2850   -2.2555    1.5550 N.am      1 <0>         0.0000
     11 O1          0.0825   -1.1225    2.9887 O.2       1 <0>         0.0000
     12 O2         -3.6808   -4.5932    2.6553 O.2       1 <0>         0.0000
     13 H1          1.7041   -3.5205    0.9847 H         1 <0>         0.0000
     14 H2          2.8859   -2.3590    0.3589 H         1 <0>         0.0000
     15 H3          2.4475   -2.3380    2.0798 H         1 <0>         0.0000
     16 H4          0.0841   -2.6688   -0.8835 H         1 <0>         0.0000
     17 H5          1.2077   -1.4157   -1.3836 H         1 <0>         0.0000
     18 H6         -0.4267   -0.9659   -0.8773 H         1 <0>         0.0000
     19 H7         -3.5052   -0.8707    2.4097 H         1 <0>         0.0000
     20 H8         -3.7151   -1.7755    3.9271 H         1 <0>         0.0000
     21 H9         -2.2631   -0.7760    3.6772 H         1 <0>         0.0000
     22 H10        -4.8091   -3.9253   -0.9379 H         1 <0>         0.0000
     23 H11        -5.7780   -3.7963    0.5573 H         1 <0>         0.0000
     24 H12        -4.6629   -5.1558    0.3410 H         1 <0>         0.0000
     25 H13         1.3381   -0.4759    0.8802 H         1 <0>         0.0000
     26 H14        -1.7341   -3.1804    3.3955 H         1 <0>         0.0000
     27 H15        -3.5153   -2.4173    0.3842 H         1 <0>         0.0000
     28 H16        -1.2712   -2.8205    0.7154 H         1 <0>         0.0000
@<TRIPOS>BOND
     1    1    7 1
     2    1   10 am
     3    1   11 2
     4    2    8 1
     5    2    9 am
     6    2   12 2
     7    3    7 1
     8    3   13 1
     9    3   14 1
    10    3   15 1
    11    4    7 1
    12    4   16 1
    13    4   17 1
    14    4   18 1
    15    5    8 1
    16    5   19 1
    17    5   20 1
    18    5   21 1
    19    6    9 1
    20    6   22 1
    21    6   23 1
    22    6   24 1
    23    7   25 1
    24    8   10 1
    25    8   26 1
    26    9   27 1
    27   10   28 1
