@<TRIPOS>MOLECULE
*****
   35    35     0     0     0
SMALL
NO_CHARGES

@<TRIPOS>ATOM
      1 C1          1.9714   -0.2196   -0.0845 C.ar      1 <0>         0.0000
      2 C2          1.1866    0.5305    0.7977 C.ar      1 <0>         0.0000
      3 C3          2.8740   -1.4485    1.7821 C.ar      1 <0>         0.0000
      4 C4          2.8113   -1.2244    0.3987 C.ar      1 <0>         0.0000
      5 C5          1.2254    0.2898    2.1775 C.ar      1 <0>         0.0000
      6 C6          2.1031   -0.7094    2.6783 C.ar      1 <0>         0.0000
      7 C7         -2.2610    3.5158    3.4636 C.3       1 <0>         0.0000
      8 C8          2.3031   -0.0224    4.9897 C.3       1 <0>         0.0000
      9 C9          3.6860   -2.0298   -0.5390 C.3       1 <0>         0.0000
     10 C10        -1.2234    2.4573    3.8538 C.3       1 <0>         0.0000
     11 C11         5.0932   -1.4362   -0.5549 C.3       1 <0>         0.0000
     12 C12        -0.4876    1.9209    2.6361 C.3       1 <0>         0.0000
     13 N1          6.0188   -2.2497   -1.4731 N.4       1 <0>         0.0000
     14 O1          2.1871   -1.0589    3.9930 O.3       1 <0>         0.0000
     15 O2          0.4528    0.9293    3.0900 O.3       1 <0>         0.0000
     16 H1          1.8978   -0.0260   -1.1524 H         1 <0>         0.0000
     17 H2          0.5203    1.2847    0.3970 H         1 <0>         0.0000
     18 H3          3.5074   -2.2263    2.2038 H         1 <0>         0.0000
     19 H4         -1.7937    4.3707    2.9623 H         1 <0>         0.0000
     20 H5         -3.0193    3.1036    2.7889 H         1 <0>         0.0000
     21 H6         -2.7776    3.8942    4.3500 H         1 <0>         0.0000
     22 H7          2.7433   -0.5092    5.8613 H         1 <0>         0.0000
     23 H8          1.3269    0.3925    5.2408 H         1 <0>         0.0000
     24 H9          2.9661    0.7767    4.6413 H         1 <0>         0.0000
     25 H10         3.7302   -3.0774   -0.2143 H         1 <0>         0.0000
     26 H11         3.2657   -2.0142   -1.5515 H         1 <0>         0.0000
     27 H12        -1.7084    1.6208    4.3682 H         1 <0>         0.0000
     28 H13        -0.4919    2.8820    4.5502 H         1 <0>         0.0000
     29 H14         5.5562   -1.4517    0.4329 H         1 <0>         0.0000
     30 H15         5.1027   -0.4145   -0.9383 H         1 <0>         0.0000
     31 H16        -1.1876    1.4585    1.9284 H         1 <0>         0.0000
     32 H17         0.0517    2.7255    2.1192 H         1 <0>         0.0000
     33 H18         6.9739   -1.8711   -1.4976 H         1 <0>         0.0000
     34 H19         5.6627   -2.2619   -2.4367 H         1 <0>         0.0000
     35 H20         6.0778   -3.2266   -1.1603 H         1 <0>         0.0000
@<TRIPOS>BOND
     1    1    2 ar
     2    1    4 ar
     3    1   16 1
     4    2    5 ar
     5    2   17 1
     6    3    4 ar
     7    3    6 ar
     8    3   18 1
     9    4    9 1
    10    5    6 ar
    11    5   15 1
    12    6   14 1
    13    7   10 1
    14    7   19 1
    15    7   20 1
    16    7   21 1
    17    8   14 1
    18    8   22 1
    19    8   23 1
    20    8   24 1
    21    9   11 1
    22    9   25 1
    23    9   26 1
    24   10   12 1
    25   10   27 1
    26   10   28 1
    27   11   13 1
    28   11   29 1
    29   11   30 1
    30   12   15 1
    31   12   31 1
    32   12   32 1
    33   13   33 1
    34   13   34 1
    35   13   35 1
