@<TRIPOS>MOLECULE
*****
   74    76     0     0     0
SMALL
NO_CHARGES

@<TRIPOS>ATOM
      1 C1          0.4450    4.7004    1.0318 C.ar      1 <0>         0.0000
      2 C2          0.2406    4.8316    2.4081 C.ar      1 <0>         0.0000
      3 C3          0.0358    3.5460    0.3619 C.ar      1 <0>         0.0000
      4 C4         -0.8074    2.6619    2.4370 C.ar      1 <0>         0.0000
      5 C5         -0.3871    3.8079    3.1252 C.ar      1 <0>         0.0000
      6 C6         -0.5889    2.5071    1.0657 C.ar      1 <0>         0.0000
      7 C7         -0.2579    2.7373    5.4370 C.3       1 <0>         0.0000
      8 C8         -0.0382    0.6735   -0.6513 C.3       1 <0>         0.0000
      9 C9          1.2358    2.9788    5.5723 C.3       1 <0>         0.0000
     10 C10         0.2151   -0.7296   -0.0914 C.3       1 <0>         0.0000
     11 C11        -0.6724    3.9700    4.6236 C.3       1 <0>         0.0000
     12 C12        -1.0949    1.2631    0.3352 C.3       1 <0>         0.0000
     13 C13        -2.1297    4.3874    4.8365 C.3       1 <0>         0.0000
     14 C14        -2.4367    1.5610   -0.3411 C.3       1 <0>         0.0000
     15 C15         3.7190    4.3095    6.0261 C.3       1 <0>         0.0000
     16 C16        -1.5474   -2.5783    1.6948 C.3       1 <0>         0.0000
     17 C17         1.6918    7.4623    4.8859 C.3       1 <0>         0.0000
     18 C18         2.0454    6.7991    7.2824 C.3       1 <0>         0.0000
     19 C19         3.9946    7.1669    5.7422 C.3       1 <0>         0.0000
     20 C20         0.9948   -0.5666    3.9119 C.3       1 <0>         0.0000
     21 C21        -1.4744   -0.9445    4.2347 C.3       1 <0>         0.0000
     22 C22         0.1275   -2.8656    4.3488 C.3       1 <0>         0.0000
     23 C23         2.5351    5.0951    5.4351 C.3       1 <0>         0.0000
     24 C24        -0.2942   -1.7853    2.1045 C.3       1 <0>         0.0000
     25 C25         2.5563    6.6131    5.8426 C.3       1 <0>         0.0000
     26 C26        -0.1775   -1.5286    3.6422 C.3       1 <0>         0.0000
     27 N1          1.3068    4.4140    5.8918 N.3       1 <0>         0.0000
     28 N2         -0.0901   -0.5475    1.3308 N.3       1 <0>         0.0000
     29 O1          0.1462    5.0140    5.1880 O.3       1 <0>         0.0000
     30 O2         -1.3570    0.1885    1.2607 O.3       1 <0>         0.0000
     31 H1          0.9296    5.5023    0.4796 H         1 <0>         0.0000
     32 H2          0.5641    5.7232    2.9313 H         1 <0>         0.0000
     33 H3          0.2050    3.4603   -0.7090 H         1 <0>         0.0000
     34 H4         -1.3117    1.8598    2.9623 H         1 <0>         0.0000
     35 H5         -0.4889    1.7898    4.9548 H         1 <0>         0.0000
     36 H6         -0.7408    2.7653    6.4184 H         1 <0>         0.0000
     37 H7          0.8784    1.2638   -0.6347 H         1 <0>         0.0000
     38 H8         -0.4117    0.6428   -1.6781 H         1 <0>         0.0000
     39 H9          1.6839    2.4038    6.3851 H         1 <0>         0.0000
     40 H10         1.7453    2.7242    4.6294 H         1 <0>         0.0000
     41 H11        -0.4387   -1.4686   -0.5771 H         1 <0>         0.0000
     42 H12         1.2555   -1.0498   -0.1952 H         1 <0>         0.0000
     43 H13        -2.3269    4.5302    5.9029 H         1 <0>         0.0000
     44 H14        -2.8049    3.6208    4.4440 H         1 <0>         0.0000
     45 H15        -2.3365    5.3239    4.3106 H         1 <0>         0.0000
     46 H16        -2.7969    0.6747   -0.8727 H         1 <0>         0.0000
     47 H17        -2.3283    2.3858   -1.0512 H         1 <0>         0.0000
     48 H18        -3.1809    1.8507    0.4065 H         1 <0>         0.0000
     49 H19         3.6943    4.3164    7.1203 H         1 <0>         0.0000
     50 H20         4.6658    4.7387    5.6982 H         1 <0>         0.0000
     51 H21         3.7132    3.2696    5.6937 H         1 <0>         0.0000
     52 H22        -2.4548   -1.9941    1.8529 H         1 <0>         0.0000
     53 H23        -1.6234   -3.5043    2.2699 H         1 <0>         0.0000
     54 H24        -1.5108   -2.8573    0.6382 H         1 <0>         0.0000
     55 H25         2.0379    7.3568    3.8502 H         1 <0>         0.0000
     56 H26         0.6409    7.1798    4.9276 H         1 <0>         0.0000
     57 H27         1.7771    8.5221    5.1530 H         1 <0>         0.0000
     58 H28         2.6269    6.2084    7.9981 H         1 <0>         0.0000
     59 H29         1.0003    6.4947    7.3708 H         1 <0>         0.0000
     60 H30         2.1288    7.8527    7.5739 H         1 <0>         0.0000
     61 H31         4.6551    6.7635    6.5148 H         1 <0>         0.0000
     62 H32         3.9780    8.2551    5.8647 H         1 <0>         0.0000
     63 H33         4.4422    6.9546    4.7634 H         1 <0>         0.0000
     64 H34         1.9284   -0.9580    3.4908 H         1 <0>         0.0000
     65 H35         0.8237    0.4129    3.4639 H         1 <0>         0.0000
     66 H36         1.1395   -0.4434    4.9917 H         1 <0>         0.0000
     67 H37        -2.2975   -1.6650    4.1927 H         1 <0>         0.0000
     68 H38        -1.7926   -0.0492    3.6979 H         1 <0>         0.0000
     69 H39        -1.3227   -0.6838    5.2884 H         1 <0>         0.0000
     70 H40        -0.6778   -3.5961    4.2241 H         1 <0>         0.0000
     71 H41         0.2546   -2.7033    5.4248 H         1 <0>         0.0000
     72 H42         1.0537   -3.3141    3.9700 H         1 <0>         0.0000
     73 H43         2.6055    5.0383    4.3352 H         1 <0>         0.0000
     74 H44         0.5891   -2.3809    1.8377 H         1 <0>         0.0000
@<TRIPOS>BOND
     1    1    2 ar
     2    1    3 ar
     3    1   31 1
     4    2    5 ar
     5    2   32 1
     6    3    6 ar
     7    3   33 1
     8    4    5 ar
     9    4    6 ar
    10    4   34 1
    11    5   11 1
    12    6   12 1
    13    7    9 1
    14    7   11 1
    15    7   35 1
    16    7   36 1
    17    8   10 1
    18    8   12 1
    19    8   37 1
    20    8   38 1
    21    9   27 1
    22    9   39 1
    23    9   40 1
    24   10   28 1
    25   10   41 1
    26   10   42 1
    27   11   13 1
    28   11   29 1
    29   12   14 1
    30   12   30 1
    31   13   43 1
    32   13   44 1
    33   13   45 1
    34   14   46 1
    35   14   47 1
    36   14   48 1
    37   15   23 1
    38   15   49 1
    39   15   50 1
    40   15   51 1
    41   16   24 1
    42   16   52 1
    43   16   53 1
    44   16   54 1
    45   17   25 1
    46   17   55 1
    47   17   56 1
    48   17   57 1
    49   18   25 1
    50   18   58 1
    51   18   59 1
    52   18   60 1
    53   19   25 1
    54   19   61 1
    55   19   62 1
    56   19   63 1
    57   20   26 1
    58   20   64 1
    59   20   65 1
    60   20   66 1
    61   21   26 1
    62   21   67 1
    63   21   68 1
    64   21   69 1
    65   22   26 1
    66   22   70 1
    67   22   71 1
    68   22   72 1
    69   23   25 1
    70   23   27 1
    71   23   73 1
    72   24   26 1
    73   24   28 1
    74   24   74 1
    75   27   29 1
    76   28   30 1
