@<TRIPOS>MOLECULE
*****
   24    24     0     0     0
SMALL
NO_CHARGES

@<TRIPOS>ATOM
      1 C1          1.1660   -1.0376   -0.5324 C.2       1 <0>         0.0000
      2 C2          1.5001    1.4846   -0.3068 C.2       1 <0>         0.0000
      3 C3         -0.1530   -1.5829    1.4538 C.3       1 <0>         0.0000
      4 C4          1.5978    0.1313    0.3805 C.3       1 <0>         0.0000
      5 C5         -0.1135   -1.7244   -0.0697 C.3       1 <0>         0.0000
      6 C6         -1.3441   -1.1801   -2.2761 C.3       1 <0>         0.0000
      7 C7          0.2510    2.7997   -1.8236 C.3       1 <0>         0.0000
      8 C8         -1.3601   -1.1032   -0.7478 C.3       1 <0>         0.0000
      9 O1          1.8261   -1.3613   -1.4982 O.2       1 <0>         0.0000
     10 O2          2.2634    2.4057   -0.1061 O.2       1 <0>         0.0000
     11 O3          0.4472    1.5380   -1.1493 O.3       1 <0>         0.0000
     12 S1          0.5160    0.0922    1.8692 S.3       1 <0>         0.0000
     13 H1         -1.1683   -1.6408    1.8526 H         1 <0>         0.0000
     14 H2          0.4603   -2.3449    1.9420 H         1 <0>         0.0000
     15 H3          2.6438   -0.0097    0.6593 H         1 <0>         0.0000
     16 H4         -0.0413   -2.7767   -0.3632 H         1 <0>         0.0000
     17 H5         -0.5194   -0.6004   -2.6978 H         1 <0>         0.0000
     18 H6         -2.2804   -0.7846   -2.6837 H         1 <0>         0.0000
     19 H7         -1.2360   -2.2135   -2.6232 H         1 <0>         0.0000
     20 H8         -0.6210    2.6535   -2.4603 H         1 <0>         0.0000
     21 H9          1.1302    3.0480   -2.4216 H         1 <0>         0.0000
     22 H10         0.0703    3.5920   -1.0939 H         1 <0>         0.0000
     23 H11        -2.2313   -1.6455   -0.3603 H         1 <0>         0.0000
     24 H12        -1.4618   -0.0636   -0.4241 H         1 <0>         0.0000
@<TRIPOS>BOND
     1    1    4 1
     2    1    5 1
     3    1    9 2
     4    2    4 1
     5    2   10 2
     6    2   11 1
     7    3    5 1
     8    3   12 1
     9    3   13 1
    10    3   14 1
    11    4   12 1
    12    4   15 1
    13    5    8 1
    14    5   16 1
    15    6    8 1
    16    6   17 1
    17    6   18 1
    18    6   19 1
    19    7   11 1
    20    7   20 1
    21    7   21 1
    22    7   22 1
    23    8   23 1
    24    8   24 1
