@<TRIPOS>MOLECULE
*****
   35    35     0     0     0
SMALL
NO_CHARGES

@<TRIPOS>ATOM
      1 C1          2.6563   -0.6535    0.2391 C.ar      1 <0>         0.0000
      2 C2          1.6983   -0.0117    1.0460 C.ar      1 <0>         0.0000
      3 C3          3.4566   -1.8791    2.1655 C.ar      1 <0>         0.0000
      4 C4          3.5426   -1.5823    0.7886 C.ar      1 <0>         0.0000
      5 C5          1.6121   -0.2967    2.4080 C.ar      1 <0>         0.0000
      6 C6          2.5178   -1.2458    2.9789 C.ar      1 <0>         0.0000
      7 C7         -1.9786    2.8537    3.5439 C.3       1 <0>         0.0000
      8 C8          3.2922   -2.3265    4.9643 C.3       1 <0>         0.0000
      9 C9          4.5111   -2.3429   -0.0906 C.3       1 <0>         0.0000
     10 C10        -0.9897    1.7611    3.9654 C.3       1 <0>         0.0000
     11 C11         3.9489   -3.7283   -0.4433 C.3       1 <0>         0.0000
     12 C12        -0.1579    1.2781    2.7884 C.3       1 <0>         0.0000
     13 N1          2.5569   -3.5507   -1.0325 N.4       1 <0>         0.0000
     14 O1          2.3782   -1.4461    4.3066 O.3       1 <0>         0.0000
     15 O2          0.7419    0.2609    3.2708 O.3       1 <0>         0.0000
     16 H1          2.7428   -0.3609   -0.8062 H         1 <0>         0.0000
     17 H2          1.0389    0.7233    0.6003 H         1 <0>         0.0000
     18 H3          4.1541   -2.5878    2.6003 H         1 <0>         0.0000
     19 H4         -1.4608    3.7286    3.1356 H         1 <0>         0.0000
     20 H5         -2.6783    2.4912    2.7824 H         1 <0>         0.0000
     21 H6         -2.5686    3.1895    4.4010 H         1 <0>         0.0000
     22 H7          3.0123   -2.3067    6.0169 H         1 <0>         0.0000
     23 H8          4.3248   -1.9769    4.8528 H         1 <0>         0.0000
     24 H9          3.1995   -3.3503    4.5822 H         1 <0>         0.0000
     25 H10         4.7237   -1.7852   -1.0095 H         1 <0>         0.0000
     26 H11         5.4717   -2.5054    0.4079 H         1 <0>         0.0000
     27 H12        -1.5244    0.9064    4.3932 H         1 <0>         0.0000
     28 H13        -0.3145    2.1361    4.7415 H         1 <0>         0.0000
     29 H14         3.8181   -4.3403    0.4502 H         1 <0>         0.0000
     30 H15         4.5489   -4.2727   -1.1748 H         1 <0>         0.0000
     31 H16        -0.7982    0.8535    2.0035 H         1 <0>         0.0000
     32 H17         0.4259    2.1011    2.3557 H         1 <0>         0.0000
     33 H18         2.0050   -4.4156   -1.0258 H         1 <0>         0.0000
     34 H19         2.5970   -3.2073   -1.9987 H         1 <0>         0.0000
     35 H20         2.0711   -2.8205   -0.4703 H         1 <0>         0.0000
@<TRIPOS>BOND
     1    1    2 ar
     2    1    4 ar
     3    1   16 1
     4    2    5 ar
     5    2   17 1
     6    3    4 ar
     7    3    6 ar
     8    3   18 1
     9    4    9 1
    10    5    6 ar
    11    5   15 1
    12    6   14 1
    13    7   10 1
    14    7   19 1
    15    7   20 1
    16    7   21 1
    17    8   14 1
    18    8   22 1
    19    8   23 1
    20    8   24 1
    21    9   11 1
    22    9   25 1
    23    9   26 1
    24   10   12 1
    25   10   27 1
    26   10   28 1
    27   11   13 1
    28   11   29 1
    29   11   30 1
    30   12   15 1
    31   12   31 1
    32   12   32 1
    33   13   33 1
    34   13   34 1
    35   13   35 1
