@<TRIPOS>MOLECULE
*****
   29    30     0     0     0
SMALL
NO_CHARGES

@<TRIPOS>ATOM
      1 C1          1.2380    2.2830   -0.2411 C.ar      1 <0>         0.0000
      2 C2          1.7612    1.8266    0.9749 C.ar      1 <0>         0.0000
      3 C3          0.3963    1.4606   -0.9954 C.ar      1 <0>         0.0000
      4 C4          1.4565    0.5385    1.4316 C.ar      1 <0>         0.0000
      5 C5          0.0772    0.1702   -0.5525 C.ar      1 <0>         0.0000
      6 C6          0.6311   -0.2776    0.6632 C.ar      1 <0>         0.0000
      7 C7         -0.8553   -1.8812   -0.9610 C.2       1 <0>         0.0000
      8 C8          0.0832   -2.4884    0.0685 C.3       1 <0>         0.0000
      9 C9          4.6617   -2.1153   -0.3907 C.3       1 <0>         0.0000
     10 C10         1.4053   -2.9178   -0.5907 C.3       1 <0>         0.0000
     11 C11         2.3856   -3.5129    0.4221 C.3       1 <0>         0.0000
     12 N1         -0.8239   -0.6315   -1.2750 N.2       1 <0>         0.0000
     13 N2         -1.6687   -2.7614   -1.6434 N.pl3     1 <0>         0.0000
     14 O1          0.3060   -1.5389    1.1236 O.3       1 <0>         0.0000
     15 S1          4.0518   -3.8329   -0.2639 S.3       1 <0>         0.0000
     16 H1          1.4784    3.2812   -0.5967 H         1 <0>         0.0000
     17 H2          2.4082    2.4676    1.5675 H         1 <0>         0.0000
     18 H3         -0.0368    1.8030   -1.9311 H         1 <0>         0.0000
     19 H4          1.8502    0.1599    2.3709 H         1 <0>         0.0000
     20 H5         -0.3851   -3.3447    0.5650 H         1 <0>         0.0000
     21 H6          5.7071   -2.1722   -0.7035 H         1 <0>         0.0000
     22 H7          4.6088   -1.6135    0.5796 H         1 <0>         0.0000
     23 H8          4.1061   -1.5355   -1.1316 H         1 <0>         0.0000
     24 H9          1.8442   -2.0409   -1.0755 H         1 <0>         0.0000
     25 H10         1.1896   -3.6427   -1.3819 H         1 <0>         0.0000
     26 H11         2.4845   -2.8591    1.2929 H         1 <0>         0.0000
     27 H12         2.0273   -4.4833    0.7817 H         1 <0>         0.0000
     28 H13        -2.3666   -2.3143   -2.2295 H         1 <0>         0.0000
     29 H14        -2.0037   -3.5699   -1.1342 H         1 <0>         0.0000
@<TRIPOS>BOND
     1    1    2 ar
     2    1    3 ar
     3    1   16 1
     4    2    4 ar
     5    2   17 1
     6    3    5 ar
     7    3   18 1
     8    4    6 ar
     9    4   19 1
    10    5    6 ar
    11    5   12 1
    12    6   14 1
    13    7    8 1
    14    7   12 2
    15    7   13 1
    16    8   10 1
    17    8   14 1
    18    8   20 1
    19    9   15 1
    20    9   21 1
    21    9   22 1
    22    9   23 1
    23   10   11 1
    24   10   24 1
    25   10   25 1
    26   11   15 1
    27   11   26 1
    28   11   27 1
    29   13   28 1
    30   13   29 1
