@<TRIPOS>MOLECULE
*****
   29    30     0     0     0
SMALL
NO_CHARGES

@<TRIPOS>ATOM
      1 C1          2.3265   -5.2287    1.1654 C.ar      1 <0>         0.0000
      2 C2          2.6315   -6.3535    1.9393 C.ar      1 <0>         0.0000
      3 C3          1.0529   -4.6673    1.2392 C.ar      1 <0>         0.0000
      4 C4          1.6649   -6.9064    2.7797 C.ar      1 <0>         0.0000
      5 C5          0.0638   -5.2021    2.0794 C.ar      1 <0>         0.0000
      6 C6          0.3934   -6.3293    2.8458 C.ar      1 <0>         0.0000
      7 C7         -0.7873   -2.6120    3.5193 C.cat     1 <0>         0.0000
      8 C8         -0.2573   -1.1873    5.2601 C.3       1 <0>         0.0000
      9 C9          0.0613   -2.6495    5.6207 C.3       1 <0>         0.0000
     10 C10        -2.1041   -4.7824    0.8188 C.3       1 <0>         0.0000
     11 C11        -1.3196   -4.5780    2.1152 C.3       1 <0>         0.0000
     12 N1         -0.5400   -1.3296    3.8190 N.pl3     1 <0>         0.0000
     13 N2         -1.2279   -3.1064    2.3793 N.pl3     1 <0>         0.0000
     14 O1         -0.5343   -3.4289    4.5223 O.3       1 <0>         0.0000
     15 Cl1        -0.7866   -7.0682    3.9197 Cl        1 <0>         0.0000
     16 H1          3.0733   -4.7996    0.5041 H         1 <0>         0.0000
     17 H2          3.6178   -6.8052    1.8875 H         1 <0>         0.0000
     18 H3          0.8197   -3.7983    0.6274 H         1 <0>         0.0000
     19 H4          1.8882   -7.7816    3.3812 H         1 <0>         0.0000
     20 H5         -1.1331   -0.8019    5.7897 H         1 <0>         0.0000
     21 H6          0.5934   -0.5251    5.4249 H         1 <0>         0.0000
     22 H7          1.1294   -2.8700    5.6170 H         1 <0>         0.0000
     23 H8         -0.3995   -2.9959    6.5432 H         1 <0>         0.0000
     24 H9         -1.5769   -4.3548   -0.0402 H         1 <0>         0.0000
     25 H10        -2.2129   -5.8536    0.6380 H         1 <0>         0.0000
     26 H11        -3.1040   -4.3427    0.8876 H         1 <0>         0.0000
     27 H12        -1.8874   -5.0002    2.9437 H         1 <0>         0.0000
     28 H13        -0.8094   -0.5546    3.2246 H         1 <0>         0.0000
     29 H14        -1.4347   -2.4647    1.6218 H         1 <0>         0.0000
@<TRIPOS>BOND
     1    1    2 ar
     2    1    3 ar
     3    1   16 1
     4    2    4 ar
     5    2   17 1
     6    3    5 ar
     7    3   18 1
     8    4    6 ar
     9    4   19 1
    10    5    6 ar
    11    5   11 1
    12    6   15 1
    13    7   12 2
    14    7   13 1
    15    7   14 1
    16    8    9 1
    17    8   12 1
    18    8   20 1
    19    8   21 1
    20    9   14 1
    21    9   22 1
    22    9   23 1
    23   10   11 1
    24   10   24 1
    25   10   25 1
    26   10   26 1
    27   11   13 1
    28   11   27 1
    29   12   28 1
    30   13   29 1
