@<TRIPOS>MOLECULE
*****
   35    36     0     0     0
SMALL
NO_CHARGES

@<TRIPOS>ATOM
      1 C1          3.4333   -2.5562   -6.1190 C.ar      1 <0>         0.0000
      2 C2          2.4275   -2.2290   -7.0290 C.ar      1 <0>         0.0000
      3 C3          3.1096   -2.7276   -4.7699 C.ar      1 <0>         0.0000
      4 C4          1.1052   -2.0731   -6.5987 C.ar      1 <0>         0.0000
      5 C5          1.4092   -3.7059   -0.9444 C.2       1 <0>         0.0000
      6 C6          1.9444   -3.8886   -2.1968 C.2       1 <0>         0.0000
      7 C7          0.6852   -2.0660   -2.1309 C.2       1 <0>         0.0000
      8 C8          1.7929   -2.5889   -4.3278 C.ar      1 <0>         0.0000
      9 C9          0.7759   -2.2513   -5.2495 C.ar      1 <0>         0.0000
     10 C10        -4.2956   -3.1806   -3.0547 C.3       1 <0>         0.0000
     11 C11        -2.9089   -4.6159   -4.6070 C.3       1 <0>         0.0000
     12 C12        -2.8629   -2.0687   -4.7982 C.3       1 <0>         0.0000
     13 C13        -1.5946   -2.0378   -5.6399 C.3       1 <0>         0.0000
     14 C14        -2.9901   -3.2798   -3.8556 C.3       1 <0>         0.0000
     15 N1          0.6292   -2.5640   -0.9131 N.2       1 <0>         0.0000
     16 N2          1.4735   -2.8289   -2.9648 N.pl3     1 <0>         0.0000
     17 O1         -0.4798   -2.1230   -4.7407 O.3       1 <0>         0.0000
     18 H1          4.4618   -2.6686   -6.4486 H         1 <0>         0.0000
     19 H2          2.6649   -2.0876   -8.0798 H         1 <0>         0.0000
     20 H3          3.8813   -2.9648   -4.0433 H         1 <0>         0.0000
     21 H4          0.3350   -1.8182   -7.3173 H         1 <0>         0.0000
     22 H5          1.5327   -4.3314   -0.0696 H         1 <0>         0.0000
     23 H6          2.5705   -4.6600   -2.6209 H         1 <0>         0.0000
     24 H7          0.1897   -1.1711   -2.4778 H         1 <0>         0.0000
     25 H8         -5.1696   -3.2287   -3.7168 H         1 <0>         0.0000
     26 H9         -4.3499   -2.2400   -2.4953 H         1 <0>         0.0000
     27 H10        -4.3775   -4.0014   -2.3343 H         1 <0>         0.0000
     28 H11        -3.6884   -4.6859   -5.3768 H         1 <0>         0.0000
     29 H12        -3.0482   -5.4547   -3.9169 H         1 <0>         0.0000
     30 H13        -1.9379   -4.7546   -5.0931 H         1 <0>         0.0000
     31 H14        -2.9108   -1.1470   -4.2060 H         1 <0>         0.0000
     32 H15        -3.7166   -2.0438   -5.4895 H         1 <0>         0.0000
     33 H16        -1.5558   -2.8774   -6.3444 H         1 <0>         0.0000
     34 H17        -1.5383   -1.1039   -6.2140 H         1 <0>         0.0000
     35 H18        -2.1537   -3.2380   -3.1489 H         1 <0>         0.0000
@<TRIPOS>BOND
     1    1    2 ar
     2    1    3 ar
     3    1   18 1
     4    2    4 ar
     5    2   19 1
     6    3    8 ar
     7    3   20 1
     8    4    9 ar
     9    4   21 1
    10    5    6 2
    11    5   15 1
    12    5   22 1
    13    6   16 1
    14    6   23 1
    15    7   15 2
    16    7   16 1
    17    7   24 1
    18    8    9 ar
    19    8   16 1
    20    9   17 1
    21   10   14 1
    22   10   25 1
    23   10   26 1
    24   10   27 1
    25   11   14 1
    26   11   28 1
    27   11   29 1
    28   11   30 1
    29   12   13 1
    30   12   14 1
    31   12   31 1
    32   12   32 1
    33   13   17 1
    34   13   33 1
    35   13   34 1
    36   14   35 1
