@<TRIPOS>MOLECULE
*****
   39    40     0     0     0
SMALL
NO_CHARGES

@<TRIPOS>ATOM
      1 C1          2.8548   -1.5189    1.8989 C.ar      1 <0>         0.0000
      2 C2          1.6801   -1.1833   -0.1861 C.ar      1 <0>         0.0000
      3 C3         -0.7253    3.9621    1.9418 C.ar      1 <0>         0.0000
      4 C4          0.5662    3.6399    3.9588 C.ar      1 <0>         0.0000
      5 C5          1.7476   -1.0489    2.6046 C.ar      1 <0>         0.0000
      6 C6          0.5635   -0.7095    0.5055 C.ar      1 <0>         0.0000
      7 C7         -1.0014    2.5942    1.8858 C.ar      1 <0>         0.0000
      8 C8          0.2983    2.2720    3.9178 C.ar      1 <0>         0.0000
      9 C9          2.8374   -1.5886    0.4961 C.ar      1 <0>         0.0000
     10 C10         0.0613    4.5019    2.9706 C.ar      1 <0>         0.0000
     11 C11         0.6137   -0.6411    1.8980 C.ar      1 <0>         0.0000
     12 C12        -0.4795    1.7615    2.8756 C.ar      1 <0>         0.0000
     13 C13         4.0512   -2.0652   -0.2683 C.3       1 <0>         0.0000
     14 C14         0.3194    5.9899    3.0377 C.3       1 <0>         0.0000
     15 C15         5.1652   -1.0185   -0.3451 C.3       1 <0>         0.0000
     16 C16        -0.5160    6.6998    4.1061 C.3       1 <0>         0.0000
     17 O1         -1.9955   -0.1989    1.9549 O.2       1 <0>         0.0000
     18 O2         -0.7335   -0.5324    4.1715 O.2       1 <0>         0.0000
     19 O3          5.7174   -0.8536    0.9652 O.3       1 <0>         0.0000
     20 O4         -0.0328    6.2994    5.3928 O.3       1 <0>         0.0000
     21 S1         -0.8049   -0.0048    2.7992 S.o2      1 <0>         0.0000
     22 H1          3.7453   -1.8313    2.4350 H         1 <0>         0.0000
     23 H2          1.6456   -1.2488   -1.2714 H         1 <0>         0.0000
     24 H3         -1.1316    4.6187    1.1755 H         1 <0>         0.0000
     25 H4          1.1540    4.0525    4.7724 H         1 <0>         0.0000
     26 H5          1.7485   -1.0132    3.6897 H         1 <0>         0.0000
     27 H6         -0.3412   -0.4180   -0.0190 H         1 <0>         0.0000
     28 H7         -1.6239    2.1764    1.1007 H         1 <0>         0.0000
     29 H8          0.6680    1.6066    4.6920 H         1 <0>         0.0000
     30 H9          4.4677   -2.9654    0.1973 H         1 <0>         0.0000
     31 H10         3.7659   -2.3325   -1.2913 H         1 <0>         0.0000
     32 H11         1.3757    6.1867    3.2531 H         1 <0>         0.0000
     33 H12         0.0955    6.4504    2.0696 H         1 <0>         0.0000
     34 H13         5.9383   -1.3651   -1.0464 H         1 <0>         0.0000
     35 H14         4.7575   -0.0695   -0.7213 H         1 <0>         0.0000
     36 H15        -0.4142    7.7877    3.9808 H         1 <0>         0.0000
     37 H16        -1.5757    6.4355    3.9845 H         1 <0>         0.0000
     38 H17         6.3160   -0.0918    0.9543 H         1 <0>         0.0000
     39 H18        -0.6711    6.5816    6.0649 H         1 <0>         0.0000
@<TRIPOS>BOND
     1    1    5 ar
     2    1    9 ar
     3    1   22 1
     4    2    6 ar
     5    2    9 ar
     6    2   23 1
     7    3    7 ar
     8    3   10 ar
     9    3   24 1
    10    4    8 ar
    11    4   10 ar
    12    4   25 1
    13    5   11 ar
    14    5   26 1
    15    6   11 ar
    16    6   27 1
    17    7   12 ar
    18    7   28 1
    19    8   12 ar
    20    8   29 1
    21    9   13 1
    22   10   14 1
    23   11   21 1
    24   12   21 1
    25   13   15 1
    26   13   30 1
    27   13   31 1
    28   14   16 1
    29   14   32 1
    30   14   33 1
    31   15   19 1
    32   15   34 1
    33   15   35 1
    34   16   20 1
    35   16   36 1
    36   16   37 1
    37   17   21 2
    38   18   21 2
    39   19   38 1
    40   20   39 1
