@<TRIPOS>MOLECULE
*****
   39    41     0     0     0
SMALL
NO_CHARGES

@<TRIPOS>ATOM
      1 C1          0.6435   -1.1622   -0.7279 C.ar      1 <0>         0.0000
      2 C2         -1.0517   -0.3442   -2.8117 C.ar      1 <0>         0.0000
      3 C3         -0.3157   -0.1611   -0.4702 C.ar      1 <0>         0.0000
      4 C4          0.7472   -1.7453   -1.9854 C.ar      1 <0>         0.0000
      5 C5         -0.0995   -1.3359   -3.0209 C.ar      1 <0>         0.0000
      6 C6         -1.1411    0.2325   -1.5423 C.ar      1 <0>         0.0000
      7 C7         -0.4792   -0.1316    2.0492 C.2       1 <0>         0.0000
      8 C8         -0.4117    0.4847    0.8545 C.2       1 <0>         0.0000
      9 C9         -0.8173   -3.2630   -4.4873 C.2       1 <0>         0.0000
     10 C10         1.6784   -2.8379   -2.4619 C.3       1 <0>         0.0000
     11 C11        -0.5352   -1.6247    2.2686 C.3       1 <0>         0.0000
     12 C12        -0.4764    0.6573    3.3376 C.3       1 <0>         0.0000
     13 C13         1.5990   -2.7142   -4.0023 C.3       1 <0>         0.0000
     14 C14         0.6344   -2.0893    3.1598 C.3       1 <0>         0.0000
     15 C15         0.6944    0.2105    4.2382 C.3       1 <0>         0.0000
     16 C16         0.6698   -1.3056    4.4800 C.3       1 <0>         0.0000
     17 C17         0.1808   -2.1179   -4.2854 C.3       1 <0>         0.0000
     18 O1         -1.4053   -3.8292   -3.5981 O.2       1 <0>         0.0000
     19 O2         -0.9672   -3.6833   -5.7816 O.3       1 <0>         0.0000
     20 Cl1        -2.3525    1.4871   -1.2936 Cl        1 <0>         0.0000
     21 H1          1.3224   -1.4479    0.0707 H         1 <0>         0.0000
     22 H2         -1.7206   -0.0180   -3.6028 H         1 <0>         0.0000
     23 H3         -0.4492    1.5732    0.8429 H         1 <0>         0.0000
     24 H4          2.7015   -2.7286   -2.0894 H         1 <0>         0.0000
     25 H5          1.3072   -3.8148   -2.1306 H         1 <0>         0.0000
     26 H6         -1.4761   -1.8534    2.7906 H         1 <0>         0.0000
     27 H7         -0.5561   -2.1768    1.3274 H         1 <0>         0.0000
     28 H8         -0.4172    1.7316    3.1359 H         1 <0>         0.0000
     29 H9         -1.4193    0.4781    3.8747 H         1 <0>         0.0000
     30 H10         2.3470   -1.9965   -4.3531 H         1 <0>         0.0000
     31 H11         1.7748   -3.6623   -4.5184 H         1 <0>         0.0000
     32 H12         0.5480   -3.1642    3.3566 H         1 <0>         0.0000
     33 H13         1.5795   -1.9385    2.6209 H         1 <0>         0.0000
     34 H14         1.6396    0.4876    3.7531 H         1 <0>         0.0000
     35 H15         0.6557    0.7486    5.1926 H         1 <0>         0.0000
     36 H16         1.5391   -1.6071    5.0762 H         1 <0>         0.0000
     37 H17        -0.2203   -1.5613    5.0713 H         1 <0>         0.0000
     38 H18         0.1894   -1.4750   -5.1738 H         1 <0>         0.0000
     39 H19        -0.4362   -3.1248   -6.3738 H         1 <0>         0.0000
@<TRIPOS>BOND
     1    1    3 ar
     2    1    4 ar
     3    1   21 1
     4    2    5 ar
     5    2    6 ar
     6    2   22 1
     7    3    6 ar
     8    3    8 1
     9    4    5 ar
    10    4   10 1
    11    5   17 1
    12    6   20 1
    13    7    8 2
    14    7   12 1
    15    7   11 1
    16    8   23 1
    17    9   17 1
    18    9   18 2
    19    9   19 1
    20   10   13 1
    21   10   24 1
    22   10   25 1
    23   11   14 1
    24   11   26 1
    25   11   27 1
    26   12   15 1
    27   12   28 1
    28   12   29 1
    29   13   17 1
    30   13   30 1
    31   13   31 1
    32   14   16 1
    33   14   32 1
    34   14   33 1
    35   15   16 1
    36   15   34 1
    37   15   35 1
    38   16   36 1
    39   16   37 1
    40   17   38 1
    41   19   39 1
