@<TRIPOS>MOLECULE
*****
   26    27     0     0     0
SMALL
NO_CHARGES

@<TRIPOS>ATOM
      1 C1          1.3104    1.4946    0.4031 C.ar      1 <0>         0.0000
      2 C2          1.1305    0.1260    0.1922 C.ar      1 <0>         0.0000
      3 C3          3.5363   -0.1862    0.3848 C.ar      1 <0>         0.0000
      4 C4          3.7267    1.1840    0.5828 C.ar      1 <0>         0.0000
      5 C5          2.5923    2.0219    0.5967 C.ar      1 <0>         0.0000
      6 C6          2.2539   -0.6902    0.1931 C.ar      1 <0>         0.0000
      7 C7          3.8887    4.0025    1.3060 C.2       1 <0>         0.0000
      8 C8          4.9892    3.0269    1.6750 C.3       1 <0>         0.0000
      9 C9          5.1061    1.8256    0.7128 C.3       1 <0>         0.0000
     10 C10         6.1601    0.8549    1.2677 C.3       1 <0>         0.0000
     11 C11         5.5524    2.3192   -0.6841 C.3       1 <0>         0.0000
     12 N1          2.7582    3.4075    0.7889 N.am      1 <0>         0.0000
     13 O1          3.9601    5.2161    1.4680 O.2       1 <0>         0.0000
     14 F1          2.1005   -2.0284    0.0001 F         1 <0>         0.0000
     15 H1          0.4464    2.1547    0.4221 H         1 <0>         0.0000
     16 H2          0.1444   -0.3012    0.0408 H         1 <0>         0.0000
     17 H3          4.3731   -0.8757    0.3687 H         1 <0>         0.0000
     18 H4          5.9240    3.5895    1.7211 H         1 <0>         0.0000
     19 H5          4.7716    2.6659    2.6893 H         1 <0>         0.0000
     20 H6          7.1036    1.3851    1.4332 H         1 <0>         0.0000
     21 H7          6.3679    0.0374    0.5706 H         1 <0>         0.0000
     22 H8          5.8417    0.4202    2.2208 H         1 <0>         0.0000
     23 H9          6.5322    2.8056   -0.6211 H         1 <0>         0.0000
     24 H10         4.8438    3.0392   -1.1043 H         1 <0>         0.0000
     25 H11         5.6287    1.4778   -1.3795 H         1 <0>         0.0000
     26 H12         1.9758    4.0298    0.6168 H         1 <0>         0.0000
@<TRIPOS>BOND
     1    1    2 ar
     2    1    5 ar
     3    1   15 1
     4    2    6 ar
     5    2   16 1
     6    3    4 ar
     7    3    6 ar
     8    3   17 1
     9    4    5 ar
    10    4    9 1
    11    5   12 1
    12    6   14 1
    13    7    8 1
    14    7   12 am
    15    7   13 2
    16    8    9 1
    17    8   18 1
    18    8   19 1
    19    9   10 1
    20    9   11 1
    21   10   20 1
    22   10   21 1
    23   10   22 1
    24   11   23 1
    25   11   24 1
    26   11   25 1
    27   12   26 1
