@<TRIPOS>MOLECULE
*****
   33    34     0     0     0
SMALL
NO_CHARGES

@<TRIPOS>ATOM
      1 C1         -2.1995   -0.0067    2.7060 C.ar      1 <0>         0.0000
      2 C2         -2.5163    1.0402    1.8287 C.ar      1 <0>         0.0000
      3 C3         -1.1413   -0.8797    2.4223 C.ar      1 <0>         0.0000
      4 C4         -1.7758    1.2256    0.6547 C.ar      1 <0>         0.0000
      5 C5         -0.4005   -0.6919    1.2538 C.ar      1 <0>         0.0000
      6 C6         -0.7173    0.3585    0.3812 C.ar      1 <0>         0.0000
      7 C7         -0.2770    0.1936   -3.2722 C.2       1 <0>         0.0000
      8 C8          0.7671   -1.4915    0.7169 C.3       1 <0>         0.0000
      9 C9          0.1904    0.3372   -0.8313 C.3       1 <0>         0.0000
     10 C10         1.3781   -0.5585   -0.3588 C.3       1 <0>         0.0000
     11 C11         2.1394   -1.2736   -1.4710 C.3       1 <0>         0.0000
     12 C12        -1.2158    1.1859   -6.0316 C.3       1 <0>         0.0000
     13 C13        -1.2183   -0.4476   -4.3108 C.3       1 <0>         0.0000
     14 N1         -0.5425   -0.1899   -1.9877 N.am      1 <0>         0.0000
     15 O1          0.6187    0.9795   -3.5693 O.2       1 <0>         0.0000
     16 O2         -0.8989   -0.1503   -5.6427 O.3       1 <0>         0.0000
     17 H1         -2.7791   -0.1385    3.6163 H         1 <0>         0.0000
     18 H2         -3.3369    1.7126    2.0652 H         1 <0>         0.0000
     19 H3         -0.9006   -1.6888    3.1086 H         1 <0>         0.0000
     20 H4         -2.0176    2.0365   -0.0288 H         1 <0>         0.0000
     21 H5          1.4922   -1.7639    1.4906 H         1 <0>         0.0000
     22 H6          0.4156   -2.4306    0.2671 H         1 <0>         0.0000
     23 H7          0.5459    1.3260   -1.1285 H         1 <0>         0.0000
     24 H8          2.0659    0.1230    0.1572 H         1 <0>         0.0000
     25 H9          1.4891   -1.9737   -2.0062 H         1 <0>         0.0000
     26 H10         2.9767   -1.8458   -1.0568 H         1 <0>         0.0000
     27 H11         2.5346   -0.5620   -2.2011 H         1 <0>         0.0000
     28 H12        -1.0010    1.2547   -7.1002 H         1 <0>         0.0000
     29 H13        -0.6079    1.9140   -5.4867 H         1 <0>         0.0000
     30 H14        -2.2843    1.3955   -5.8676 H         1 <0>         0.0000
     31 H15        -1.1559   -1.5375   -4.2123 H         1 <0>         0.0000
     32 H16        -2.2544   -0.1522   -4.0704 H         1 <0>         0.0000
     33 H17        -1.3083   -0.8287   -1.8112 H         1 <0>         0.0000
@<TRIPOS>BOND
     1    1    2 ar
     2    1    3 ar
     3    1   17 1
     4    2    4 ar
     5    2   18 1
     6    3    5 ar
     7    3   19 1
     8    4    6 ar
     9    4   20 1
    10    5    6 ar
    11    5    8 1
    12    6    9 1
    13    7   13 1
    14    7   14 am
    15    7   15 2
    16    8   10 1
    17    8   21 1
    18    8   22 1
    19    9   10 1
    20    9   14 1
    21    9   23 1
    22   10   11 1
    23   10   24 1
    24   11   25 1
    25   11   26 1
    26   11   27 1
    27   12   16 1
    28   12   28 1
    29   12   29 1
    30   12   30 1
    31   13   16 1
    32   13   31 1
    33   13   32 1
    34   14   33 1
