@<TRIPOS>MOLECULE
*****
   17    17     0     0     0
SMALL
NO_CHARGES

@<TRIPOS>ATOM
      1 C1          0.3628    0.8958    2.8216 C.1       1 <0>         0.0000
      2 C2         -2.7327    1.3511   -0.7190 C.3       1 <0>         0.0000
      3 C3         -3.1175   -0.0678   -0.3088 C.3       1 <0>         0.0000
      4 C4         -1.6403    1.7834    0.2520 C.3       1 <0>         0.0000
      5 C5         -1.8096   -0.8382   -0.1637 C.3       1 <0>         0.0000
      6 N1          1.0767    1.5469    3.4639 N.1       1 <0>         0.0000
      7 N2         -0.5338    0.0778    2.0192 N.2       1 <0>         0.0000
      8 O1          0.4756    0.3993   -0.4355 O.2       1 <0>         0.0000
      9 S1         -0.6311    0.3301    0.5005 S.o       1 <0>         0.0000
     10 H1         -2.3434    1.3467   -1.7442 H         1 <0>         0.0000
     11 H2         -3.5891    2.0314   -0.6867 H         1 <0>         0.0000
     12 H3         -3.6442   -0.0431    0.6530 H         1 <0>         0.0000
     13 H4         -3.7797   -0.5392   -1.0410 H         1 <0>         0.0000
     14 H5         -1.0279    2.5974   -0.1419 H         1 <0>         0.0000
     15 H6         -2.0716    2.0766    1.2138 H         1 <0>         0.0000
     16 H7         -1.9070   -1.6986    0.5020 H         1 <0>         0.0000
     17 H8         -1.4373   -1.1710   -1.1377 H         1 <0>         0.0000
@<TRIPOS>BOND
     1    1    6 3
     2    1    7 1
     3    2    3 1
     4    2    4 1
     5    2   10 1
     6    2   11 1
     7    3    5 1
     8    3   12 1
     9    3   13 1
    10    4    9 1
    11    4   14 1
    12    4   15 1
    13    5    9 1
    14    5   16 1
    15    5   17 1
    16    7    9 2
    17    8    9 2
