@<TRIPOS>MOLECULE
*****
   35    35     0     0     0
SMALL
NO_CHARGES

@<TRIPOS>ATOM
      1 C1          1.5157   -0.6352    0.4613 C.3       1 <0>         0.0000
      2 C2          0.1931   -1.4161    0.4284 C.3       1 <0>         0.0000
      3 C3          1.8390   -0.4703   -1.0283 C.3       1 <0>         0.0000
      4 C4          0.3981   -2.3987   -0.7437 C.3       1 <0>         0.0000
      5 C5          0.9394   -3.7536   -0.2506 C.3       1 <0>         0.0000
      6 C6          3.7031   -6.4419   -3.0548 C.3       1 <0>         0.0000
      7 C7          4.1914   -7.3371   -4.2009 C.3       1 <0>         0.0000
      8 C8          1.3289   -4.6483   -1.4233 C.3       1 <0>         0.0000
      9 C9          2.5331   -7.0963   -2.3235 C.3       1 <0>         0.0000
     10 C10         5.3145   -6.7062   -4.9958 C.3       1 <0>         0.0000
     11 N1          1.3768   -1.7359   -1.6456 N.3       1 <0>         0.0000
     12 O1          0.9564   -6.9881   -0.1861 O.2       1 <0>         0.0000
     13 O2          3.2628   -5.8914   -0.0553 O.2       1 <0>         0.0000
     14 F1          5.7303   -7.5244   -5.9945 F         1 <0>         0.0000
     15 F2          4.9312   -5.5366   -5.5731 F         1 <0>         0.0000
     16 F3          6.3961   -6.4325   -4.2252 F         1 <0>         0.0000
     17 S1          2.0365   -6.2042   -0.8134 S.o2      1 <0>         0.0000
     18 H1          1.4382    0.3235    0.9811 H         1 <0>         0.0000
     19 H2          2.2957   -1.2229    0.9567 H         1 <0>         0.0000
     20 H3         -0.0342   -1.9246    1.3698 H         1 <0>         0.0000
     21 H4         -0.6363   -0.7351    0.2063 H         1 <0>         0.0000
     22 H5          1.3032    0.4022   -1.4315 H         1 <0>         0.0000
     23 H6          2.9082   -0.3197   -1.2100 H         1 <0>         0.0000
     24 H7         -0.5457   -2.5771   -1.2749 H         1 <0>         0.0000
     25 H8          0.1828   -4.2494    0.3662 H         1 <0>         0.0000
     26 H9          1.8234   -3.5850    0.3723 H         1 <0>         0.0000
     27 H10         4.5150   -6.2638   -2.3455 H         1 <0>         0.0000
     28 H11         3.4021   -5.4707   -3.4581 H         1 <0>         0.0000
     29 H12         4.5644   -8.2920   -3.8189 H         1 <0>         0.0000
     30 H13         3.3848   -7.5548   -4.9076 H         1 <0>         0.0000
     31 H14         0.4656   -4.9227   -2.0381 H         1 <0>         0.0000
     32 H15         2.0850   -4.1486   -2.0331 H         1 <0>         0.0000
     33 H16         1.6356   -7.1896   -2.9423 H         1 <0>         0.0000
     34 H17         2.7908   -8.0913   -1.9458 H         1 <0>         0.0000
     35 H18         0.9709   -1.5635   -2.5590 H         1 <0>         0.0000
@<TRIPOS>BOND
     1    1    2 1
     2    1    3 1
     3    1   18 1
     4    1   19 1
     5    2    4 1
     6    2   20 1
     7    2   21 1
     8    3   11 1
     9    3   22 1
    10    3   23 1
    11    4    5 1
    12    4   11 1
    13    4   24 1
    14    5    8 1
    15    5   25 1
    16    5   26 1
    17    6    7 1
    18    6    9 1
    19    6   27 1
    20    6   28 1
    21    7   10 1
    22    7   29 1
    23    7   30 1
    24    8   17 1
    25    8   31 1
    26    8   32 1
    27    9   17 1
    28    9   33 1
    29    9   34 1
    30   10   14 1
    31   10   15 1
    32   10   16 1
    33   11   35 1
    34   12   17 2
    35   13   17 2
