@<TRIPOS>MOLECULE
*****
   29    30     0     0     0
SMALL
NO_CHARGES

@<TRIPOS>ATOM
      1 C1          1.5008   -7.1327    2.4789 C.ar      1 <0>         0.0000
      2 C2          2.5733   -6.4399    1.9123 C.ar      1 <0>         0.0000
      3 C3          0.2319   -6.5494    2.4868 C.ar      1 <0>         0.0000
      4 C4          2.3714   -5.1742    1.3566 C.ar      1 <0>         0.0000
      5 C5         -0.0010   -5.2800    1.9307 C.ar      1 <0>         0.0000
      6 C6          1.0960   -4.6055    1.3656 C.ar      1 <0>         0.0000
      7 C7         -0.9787   -2.9745    3.6400 C.cat     1 <0>         0.0000
      8 C8          0.3312   -2.8332    5.5294 C.3       1 <0>         0.0000
      9 C9         -0.5056   -1.5543    5.3427 C.3       1 <0>         0.0000
     10 C10        -2.0959   -4.7587    0.5675 C.3       1 <0>         0.0000
     11 C11        -1.4270   -4.7496    1.9462 C.3       1 <0>         0.0000
     12 N1         -0.2811   -3.7085    4.5121 N.pl3     1 <0>         0.0000
     13 N2         -1.5266   -3.3781    2.5120 N.pl3     1 <0>         0.0000
     14 O1         -1.1131   -1.7114    4.0098 O.3       1 <0>         0.0000
     15 Cl1         0.9228   -3.0063    0.6524 Cl        1 <0>         0.0000
     16 H1          1.6472   -8.1190    2.9083 H         1 <0>         0.0000
     17 H2          3.5663   -6.8791    1.8965 H         1 <0>         0.0000
     18 H3         -0.6040   -7.0942    2.9209 H         1 <0>         0.0000
     19 H4          3.1963   -4.6280    0.9103 H         1 <0>         0.0000
     20 H5          1.3916   -2.6793    5.3113 H         1 <0>         0.0000
     21 H6          0.2196   -3.2599    6.5269 H         1 <0>         0.0000
     22 H7         -1.3264   -1.4711    6.0561 H         1 <0>         0.0000
     23 H8          0.0779   -0.6361    5.3215 H         1 <0>         0.0000
     24 H9         -1.5675   -4.1149   -0.1385 H         1 <0>         0.0000
     25 H10        -2.0844   -5.7774    0.1755 H         1 <0>         0.0000
     26 H11        -3.1391   -4.4357    0.6430 H         1 <0>         0.0000
     27 H12        -2.0087   -5.3981    2.6092 H         1 <0>         0.0000
     28 H13         0.1105   -4.6082    4.2464 H         1 <0>         0.0000
     29 H14        -1.9842   -2.6566    1.9630 H         1 <0>         0.0000
@<TRIPOS>BOND
     1    1    2 ar
     2    1    3 ar
     3    1   16 1
     4    2    4 ar
     5    2   17 1
     6    3    5 ar
     7    3   18 1
     8    4    6 ar
     9    4   19 1
    10    5    6 ar
    11    5   11 1
    12    6   15 1
    13    7   12 2
    14    7   13 1
    15    7   14 1
    16    8    9 1
    17    8   12 1
    18    8   20 1
    19    8   21 1
    20    9   14 1
    21    9   22 1
    22    9   23 1
    23   10   11 1
    24   10   24 1
    25   10   25 1
    26   10   26 1
    27   11   13 1
    28   11   27 1
    29   12   28 1
    30   13   29 1
