@<TRIPOS>MOLECULE
*****
   37    37     0     0     0
SMALL
NO_CHARGES

@<TRIPOS>ATOM
      1 C1          9.4208   -2.7838   -0.5725 C.2       1 <0>         0.0000
      2 C2          7.6840   -1.9953    0.7925 C.2       1 <0>         0.0000
      3 C3         10.3588   -3.5375   -1.4683 C.2       1 <0>         0.0000
      4 C4          1.0752    1.9237   -0.3906 C.3       1 <0>         0.0000
      5 C5         12.2490   -1.5880   -4.3834 C.3       1 <0>         0.0000
      6 C6          1.8505    1.0730    0.6211 C.3       1 <0>         0.0000
      7 C7         12.2589   -3.0923   -4.0935 C.3       1 <0>         0.0000
      8 C8          3.2435    0.6736    0.1193 C.3       1 <0>         0.0000
      9 C9          4.0035   -0.2080    1.1197 C.3       1 <0>         0.0000
     10 C10        12.5329   -3.4265   -2.6208 C.3       1 <0>         0.0000
     11 C11         5.3835   -0.5976    0.5967 C.3       1 <0>         0.0000
     12 N1          9.6432   -1.5678   -0.1372 N.2       1 <0>         0.0000
     13 N2          8.6334   -1.1091    0.6661 N.2       1 <0>         0.0000
     14 N3         11.5229   -2.8898   -1.7114 N.am      1 <0>         0.0000
     15 O1         10.0500   -4.6461   -1.9081 O.2       1 <0>         0.0000
     16 O2          5.4426   -3.0518    1.7436 O.2       1 <0>         0.0000
     17 S1          7.9286   -3.5017   -0.0425 S.3       1 <0>         0.0000
     18 S2          6.1968   -1.7381    1.8066 S.o       1 <0>         0.0000
     19 H1          1.6158    2.8470   -0.6288 H         1 <0>         0.0000
     20 H2          0.9207    1.3785   -1.3287 H         1 <0>         0.0000
     21 H3          0.0906    2.2044   -0.0023 H         1 <0>         0.0000
     22 H4         11.4643   -1.0776   -3.8146 H         1 <0>         0.0000
     23 H5         13.2089   -1.1259   -4.1226 H         1 <0>         0.0000
     24 H6         12.0645   -1.3928   -5.4445 H         1 <0>         0.0000
     25 H7          1.2780    0.1660    0.8536 H         1 <0>         0.0000
     26 H8          1.9500    1.6235    1.5655 H         1 <0>         0.0000
     27 H9         13.0314   -3.5849   -4.6968 H         1 <0>         0.0000
     28 H10        11.3019   -3.5414   -4.3798 H         1 <0>         0.0000
     29 H11         3.8277    1.5786   -0.0949 H         1 <0>         0.0000
     30 H12         3.1454    0.1367   -0.8336 H         1 <0>         0.0000
     31 H13         3.4267   -1.1180    1.3177 H         1 <0>         0.0000
     32 H14         4.1059    0.3222    2.0750 H         1 <0>         0.0000
     33 H15        12.5581   -4.5098   -2.4808 H         1 <0>         0.0000
     34 H16        13.5019   -3.0221   -2.3101 H         1 <0>         0.0000
     35 H17         6.0525    0.2605    0.4771 H         1 <0>         0.0000
     36 H18         5.3197   -1.1499   -0.3460 H         1 <0>         0.0000
     37 H19        11.6244   -1.9615   -1.3169 H         1 <0>         0.0000
@<TRIPOS>BOND
     1    1    3 1
     2    1   12 2
     3    1   17 1
     4    2   13 2
     5    2   17 1
     6    2   18 1
     7    3   14 am
     8    3   15 2
     9    4    6 1
    10    4   19 1
    11    4   20 1
    12    4   21 1
    13    5    7 1
    14    5   22 1
    15    5   23 1
    16    5   24 1
    17    6    8 1
    18    6   25 1
    19    6   26 1
    20    7   10 1
    21    7   27 1
    22    7   28 1
    23    8    9 1
    24    8   29 1
    25    8   30 1
    26    9   11 1
    27    9   31 1
    28    9   32 1
    29   10   14 1
    30   10   33 1
    31   10   34 1
    32   11   18 1
    33   11   35 1
    34   11   36 1
    35   12   13 1
    36   14   37 1
    37   16   18 2
