@<TRIPOS>MOLECULE
*****
   35    36     0     0     0
SMALL
NO_CHARGES

@<TRIPOS>ATOM
      1 C1         -1.9427    0.5102   -0.5995 C.ar      1 <0>         0.0000
      2 C2         -2.6386    2.7362   -1.2537 C.ar      1 <0>         0.0000
      3 C3         -0.7128    0.7060   -1.2301 C.ar      1 <0>         0.0000
      4 C4         -2.8980    1.5308   -0.5949 C.ar      1 <0>         0.0000
      5 C5         -0.4300    1.9124   -1.8964 C.ar      1 <0>         0.0000
      6 C6         -1.4148    2.9100   -1.9042 C.ar      1 <0>         0.0000
      7 C7          0.3347   -0.3829   -1.2007 C.2       1 <0>         0.0000
      8 C8          1.6283   -2.2625   -4.2006 C.3       1 <0>         0.0000
      9 C9          2.1970   -2.4286   -2.7840 C.3       1 <0>         0.0000
     10 C10         0.5076   -1.2136   -4.2335 C.3       1 <0>         0.0000
     11 C11         1.0969   -2.7443   -1.7574 C.3       1 <0>         0.0000
     12 C12        -0.6056   -1.5672   -3.2378 C.3       1 <0>         0.0000
     13 C13        -0.0571   -1.7296   -1.7996 C.3       1 <0>         0.0000
     14 C14         1.7984    2.7332   -1.9095 C.3       1 <0>         0.0000
     15 O1          1.4274   -0.1659   -0.6990 O.2       1 <0>         0.0000
     16 O2         -4.0782    1.2885    0.0633 O.3       1 <0>         0.0000
     17 O3          0.7332    2.0565   -2.6089 O.3       1 <0>         0.0000
     18 Cl1        -1.1257    4.4061   -2.7670 Cl        1 <0>         0.0000
     19 H1         -2.1725   -0.4210   -0.0909 H         1 <0>         0.0000
     20 H2         -3.3776    3.5331   -1.2778 H         1 <0>         0.0000
     21 H3          1.2292   -3.2255   -4.5504 H         1 <0>         0.0000
     22 H4          2.4283   -1.9833   -4.8963 H         1 <0>         0.0000
     23 H5          2.9471   -3.2281   -2.7694 H         1 <0>         0.0000
     24 H6          2.7096   -1.5083   -2.4858 H         1 <0>         0.0000
     25 H7          0.9161   -0.2248   -3.9902 H         1 <0>         0.0000
     26 H8          0.0850   -1.1392   -5.2423 H         1 <0>         0.0000
     27 H9          0.6788   -3.7375   -1.9672 H         1 <0>         0.0000
     28 H10         1.5237   -2.7788   -0.7506 H         1 <0>         0.0000
     29 H11        -1.3998   -0.8147   -3.2617 H         1 <0>         0.0000
     30 H12        -1.0652   -2.5202   -3.5294 H         1 <0>         0.0000
     31 H13        -0.8840   -2.0963   -1.1729 H         1 <0>         0.0000
     32 H14         2.6200    2.8105   -2.6237 H         1 <0>         0.0000
     33 H15         2.1065    2.1449   -1.0414 H         1 <0>         0.0000
     34 H16         1.4838    3.7370   -1.6047 H         1 <0>         0.0000
     35 H17        -4.6520    2.0680   -0.0045 H         1 <0>         0.0000
@<TRIPOS>BOND
     1    1    3 ar
     2    1    4 ar
     3    1   19 1
     4    2    4 ar
     5    2    6 ar
     6    2   20 1
     7    3    5 ar
     8    3    7 1
     9    4   16 1
    10    5    6 ar
    11    5   17 1
    12    6   18 1
    13    7   13 1
    14    7   15 2
    15    8   10 1
    16    8    9 1
    17    8   21 1
    18    8   22 1
    19    9   11 1
    20    9   23 1
    21    9   24 1
    22   10   12 1
    23   10   25 1
    24   10   26 1
    25   11   13 1
    26   11   27 1
    27   11   28 1
    28   12   13 1
    29   12   29 1
    30   12   30 1
    31   13   31 1
    32   14   17 1
    33   14   32 1
    34   14   33 1
    35   14   34 1
    36   16   35 1
