@<TRIPOS>MOLECULE
*****
   28    29     0     0     0
SMALL
NO_CHARGES

@<TRIPOS>ATOM
      1 C1          4.2633    0.0827   -0.1496 C.ar      1 <0>         0.0000
      2 C2          4.3572    1.3792   -0.6503 C.ar      1 <0>         0.0000
      3 C3          2.0849    1.6075   -0.9842 C.ar      1 <0>         0.0000
      4 C4          1.1266   -1.7079    0.2455 C.2       1 <0>         0.0000
      5 C5          1.8468    0.3135   -0.4803 C.ar      1 <0>         0.0000
      6 C6          0.6728   -0.5093   -0.2715 C.2       1 <0>         0.0000
      7 C7          2.9726   -0.4494   -0.0685 C.ar      1 <0>         0.0000
      8 C8         -0.7526   -0.1318   -0.5585 C.3       1 <0>         0.0000
      9 C9         -2.6943    1.3981    0.1821 C.3       1 <0>         0.0000
     10 C10        -1.2027    1.0762    0.2807 C.3       1 <0>         0.0000
     11 N1          3.3057    2.1273   -1.0608 N.ar      1 <0>         0.0000
     12 N2          2.5039   -1.6743    0.3652 N.pl3     1 <0>         0.0000
     13 N3         -0.8388    0.7950    1.7327 N.4       1 <0>         0.0000
     14 O1         -2.9089    1.7033   -1.1802 O.3       1 <0>         0.0000
     15 H1          5.1500   -0.4683    0.1491 H         1 <0>         0.0000
     16 H2          5.3320    1.8529   -0.7379 H         1 <0>         0.0000
     17 H3          1.2714    2.2324   -1.3548 H         1 <0>         0.0000
     18 H4          0.5734   -2.6040    0.4984 H         1 <0>         0.0000
     19 H5         -1.4221   -0.9795   -0.3690 H         1 <0>         0.0000
     20 H6         -0.8942    0.1506   -1.6054 H         1 <0>         0.0000
     21 H7         -3.2860    0.5257    0.5066 H         1 <0>         0.0000
     22 H8         -2.9430    2.2476    0.8369 H         1 <0>         0.0000
     23 H9         -0.6216    1.9598    0.0106 H         1 <0>         0.0000
     24 H10         3.0786   -2.4465    0.6777 H         1 <0>         0.0000
     25 H11         0.1092    0.3720    1.7325 H         1 <0>         0.0000
     26 H12        -1.4768    0.1118    2.1589 H         1 <0>         0.0000
     27 H13        -0.8351    1.6382    2.3176 H         1 <0>         0.0000
     28 H14        -3.8271    1.9882   -1.3143 H         1 <0>         0.0000
@<TRIPOS>BOND
     1    1    2 ar
     2    1    7 ar
     3    1   15 1
     4    2   11 ar
     5    2   16 1
     6    3    5 ar
     7    3   11 ar
     8    3   17 1
     9    4    6 2
    10    4   12 1
    11    4   18 1
    12    5    6 1
    13    5    7 ar
    14    6    8 1
    15    7   12 1
    16    8   10 1
    17    8   19 1
    18    8   20 1
    19    9   10 1
    20    9   14 1
    21    9   21 1
    22    9   22 1
    23   10   13 1
    24   10   23 1
    25   12   24 1
    26   13   25 1
    27   13   26 1
    28   13   27 1
    29   14   28 1
