@<TRIPOS>MOLECULE
*****
   24    25     0     0     0
SMALL
NO_CHARGES

@<TRIPOS>ATOM
      1 C1          3.0670    2.3568   -2.5648 C.2       1 <0>         0.0000
      2 C2          2.4925    3.5422   -2.1618 C.2       1 <0>         0.0000
      3 C3          2.2063    1.2428   -2.3448 C.2       1 <0>         0.0000
      4 C4          1.0066    1.6193   -1.7817 C.2       1 <0>         0.0000
      5 C5         -0.7554   -0.5672    0.7758 C.3       1 <0>         0.0000
      6 C6          0.5964    0.0551    0.9886 C.3       1 <0>         0.0000
      7 C7          0.1495   -0.3156   -0.3984 C.3       1 <0>         0.0000
      8 C8          2.5704   -0.1532   -2.6861 C.3       1 <0>         0.0000
      9 C9         -0.1844    0.7460   -1.3882 C.3       1 <0>         0.0000
     10 N1         -0.8094    0.1982   -2.5870 N.3       1 <0>         0.0000
     11 S1          0.9216    3.3096   -1.5209 S.3       1 <0>         0.0000
     12 H1          4.0581    2.2972   -2.9966 H         1 <0>         0.0000
     13 H2          2.9200    4.5336   -2.2130 H         1 <0>         0.0000
     14 H3         -0.8939   -1.5932    1.0941 H         1 <0>         0.0000
     15 H4         -1.6260    0.0640    0.9046 H         1 <0>         0.0000
     16 H5          0.6313    1.1030    1.2598 H         1 <0>         0.0000
     17 H6          1.3644   -0.5535    1.4500 H         1 <0>         0.0000
     18 H7          0.6185   -1.1736   -0.8648 H         1 <0>         0.0000
     19 H8          3.0677   -0.6459   -1.8376 H         1 <0>         0.0000
     20 H9          1.6858   -0.7505   -2.9560 H         1 <0>         0.0000
     21 H10         3.2500   -0.1969   -3.5514 H         1 <0>         0.0000
     22 H11        -0.9622    1.4149   -0.9667 H         1 <0>         0.0000
     23 H12        -0.7786    0.7408   -3.4237 H         1 <0>         0.0000
     24 H13        -1.4136   -0.5892   -2.4848 H         1 <0>         0.0000
@<TRIPOS>BOND
     1    1    2 2
     2    1    3 1
     3    1   12 1
     4    2   11 1
     5    2   13 1
     6    3    4 2
     7    3    8 1
     8    4    9 1
     9    4   11 1
    10    5    6 1
    11    5    7 1
    12    5   14 1
    13    5   15 1
    14    6    7 1
    15    6   16 1
    16    6   17 1
    17    7    9 1
    18    7   18 1
    19    8   19 1
    20    8   20 1
    21    8   21 1
    22    9   10 1
    23    9   22 1
    24   10   23 1
    25   10   24 1
