@<TRIPOS>MOLECULE
*****
   21    21     0     0     0
SMALL
NO_CHARGES

@<TRIPOS>ATOM
      1 C1          7.3080   -2.4020   -1.4550 C.ar      1 <0>         0.0000
      2 C2          6.5730   -1.3850   -2.0530 C.ar      1 <0>         0.0000
      3 C3          6.8170   -3.0380   -0.3200 C.ar      1 <0>         0.0000
      4 C4          5.3480   -1.0000   -1.5140 C.ar      1 <0>         0.0000
      5 C5          5.5930   -2.6540    0.2190 C.ar      1 <0>         0.0000
      6 C6          4.8540   -1.6290   -0.3710 C.ar      1 <0>         0.0000
      7 C7          0.8190   -1.5480    0.9240 C.3       1 <0>         0.0000
      8 C8          3.5210   -1.2120    0.2300 C.3       1 <0>         0.0000
      9 O1          2.4950   -3.5300    0.9200 O.2       1 <0>         0.0000
     10 O2          1.8280   -2.5980   -1.2230 O.2       1 <0>         0.0000
     11 S1          2.1730   -2.3860    0.1390 S.o2      1 <0>         0.0000
     12 H1          8.2400   -2.6960   -1.8660 H         1 <0>         0.0000
     13 H2          6.9440   -0.9040   -2.9220 H         1 <0>         0.0000
     14 H3          7.3730   -3.8180    0.1340 H         1 <0>         0.0000
     15 H4          4.7940   -0.2290   -1.9840 H         1 <0>         0.0000
     16 H5          5.2220   -3.1530    1.0800 H         1 <0>         0.0000
     17 H6         -0.0790   -2.1490    0.9380 H         1 <0>         0.0000
     18 H7          0.5340   -0.6330    0.4280 H         1 <0>         0.0000
     19 H8          1.0060   -1.3030    1.9590 H         1 <0>         0.0000
     20 H9          3.2790   -0.2890   -0.2740 H         1 <0>         0.0000
     21 H10         3.7730   -0.9700    1.2520 H         1 <0>         0.0000
@<TRIPOS>BOND
     1    1    2 ar
     2    1    3 ar
     3    1   12 1
     4    2    4 ar
     5    2   13 1
     6    3    5 ar
     7    3   14 1
     8    4    6 ar
     9    4   15 1
    10    5    6 ar
    11    5   16 1
    12    6    8 1
    13    7   11 1
    14    7   17 1
    15    7   18 1
    16    7   19 1
    17    8   11 1
    18    8   20 1
    19    8   21 1
    20    9   11 2
    21   10   11 2
