@<TRIPOS>MOLECULE
*****
   21    21     0     0     0
SMALL
NO_CHARGES

@<TRIPOS>ATOM
      1 C1          0.5118    1.2693   -1.6177 C.2       1 <0>         0.0000
      2 C2          0.1370    1.7849   -2.9066 C.2       1 <0>         0.0000
      3 C3         -0.2699    0.3966   -0.9716 C.2       1 <0>         0.0000
      4 C4         -1.0086    1.3881   -3.4713 C.2       1 <0>         0.0000
      5 C5         -1.5530   -0.0590   -1.5887 C.2       1 <0>         0.0000
      6 C6         -2.7470   -0.5797   -4.8339 C.3       1 <0>         0.0000
      7 C7         -3.9544    1.3254   -3.7119 C.3       1 <0>         0.0000
      8 C8         -3.0870    0.0913   -3.5110 C.3       1 <0>         0.0000
      9 N1         -1.8518    0.4859   -2.8445 N.am      1 <0>         0.0000
     10 O1         -2.2523   -0.8634   -0.9748 O.2       1 <0>         0.0000
     11 H1          1.4452    1.6084   -1.1829 H         1 <0>         0.0000
     12 H2          0.7948    2.4916   -3.3985 H         1 <0>         0.0000
     13 H3         -0.0004    0.0009    0.0004 H         1 <0>         0.0000
     14 H4         -1.3198    1.7583   -4.4418 H         1 <0>         0.0000
     15 H5         -2.2235    0.1140   -5.4998 H         1 <0>         0.0000
     16 H6         -2.1082   -1.4573   -4.6847 H         1 <0>         0.0000
     17 H7         -3.6563   -0.9175   -5.3432 H         1 <0>         0.0000
     18 H8         -3.4515    2.0523   -4.3590 H         1 <0>         0.0000
     19 H9         -4.1661    1.8131   -2.7547 H         1 <0>         0.0000
     20 H10        -4.9100    1.0707   -4.1838 H         1 <0>         0.0000
     21 H11        -3.6093   -0.6200   -2.8621 H         1 <0>         0.0000
@<TRIPOS>BOND
     1    1    3 2
     2    1    2 1
     3    1   11 1
     4    2    4 2
     5    2   12 1
     6    3    5 1
     7    3   13 1
     8    4    9 1
     9    4   14 1
    10    5    9 am
    11    5   10 2
    12    6    8 1
    13    6   15 1
    14    6   16 1
    15    6   17 1
    16    7    8 1
    17    7   18 1
    18    7   19 1
    19    7   20 1
    20    8    9 1
    21    8   21 1
