@<TRIPOS>MOLECULE
*****
   21    22     0     0     0
SMALL
NO_CHARGES

@<TRIPOS>ATOM
      1 C1         -4.3736    3.8569   -2.5973 C.ar      1 <0>         0.0000
      2 C2         -4.3012    2.7511   -4.5488 C.ar      1 <0>         0.0000
      3 C3         -2.9830    2.1133   -2.8481 C.ar      1 <0>         0.0000
      4 C4         -0.6432   -0.6602   -1.9845 C.3       1 <0>         0.0000
      5 C5         -0.2383    0.4061   -0.9869 C.3       1 <0>         0.0000
      6 C6         -1.3770    0.1410   -3.0538 C.3       1 <0>         0.0000
      7 C7         -1.4551    1.3241   -0.9628 C.3       1 <0>         0.0000
      8 N1         -4.8513    3.7558   -3.8483 N.ar      1 <0>         0.0000
      9 N2         -3.4420    3.0738   -2.0298 N.ar      1 <0>         0.0000
     10 N3         -3.3645    1.8918   -4.1163 N.ar      1 <0>         0.0000
     11 N4         -2.0029    1.2497   -2.3229 N.pl3     1 <0>         0.0000
     12 H1         -4.7812    4.6510   -1.9837 H         1 <0>         0.0000
     13 H2         -4.6487    2.6210   -5.5664 H         1 <0>         0.0000
     14 H3          0.2168   -1.2021   -2.3875 H         1 <0>         0.0000
     15 H4         -1.3222   -1.3830   -1.5170 H         1 <0>         0.0000
     16 H5         -0.0107   -0.0093   -0.0012 H         1 <0>         0.0000
     17 H6          0.6424    0.9510   -1.3467 H         1 <0>         0.0000
     18 H7         -0.6741    0.5401   -3.7939 H         1 <0>         0.0000
     19 H8         -2.1200   -0.4774   -3.5682 H         1 <0>         0.0000
     20 H9         -2.2019    0.9648   -0.2459 H         1 <0>         0.0000
     21 H10        -1.1701    2.3472   -0.6954 H         1 <0>         0.0000
@<TRIPOS>BOND
     1    1    8 ar
     2    1    9 ar
     3    1   12 1
     4    2    8 ar
     5    2   10 ar
     6    2   13 1
     7    3    9 ar
     8    3   10 ar
     9    3   11 1
    10    4    5 1
    11    4    6 1
    12    4   14 1
    13    4   15 1
    14    5    7 1
    15    5   16 1
    16    5   17 1
    17    6   11 1
    18    6   18 1
    19    6   19 1
    20    7   11 1
    21    7   20 1
    22    7   21 1
