@<TRIPOS>MOLECULE
*****
   20    21     0     0     0
SMALL
NO_CHARGES

@<TRIPOS>ATOM
      1 C1          1.8851   -1.0363   -0.1124 C.ar      1 <0>         0.0000
      2 C2          2.9210   -1.6309    0.6081 C.ar      1 <0>         0.0000
      3 C3          0.8066   -0.4630    0.5610 C.ar      1 <0>         0.0000
      4 C4          2.8783   -1.6520    2.0022 C.ar      1 <0>         0.0000
      5 C5          0.7638   -0.4841    1.9551 C.ar      1 <0>         0.0000
      6 C6          4.1789   -2.5064    6.1744 C.2       1 <0>         0.0000
      7 C7          3.2527   -2.0239    7.0654 C.2       1 <0>         0.0000
      8 C8          1.7997   -1.0786    2.6757 C.ar      1 <0>         0.0000
      9 C9          2.6343   -1.6166    5.0584 C.2       1 <0>         0.0000
     10 N1          3.7770   -2.2427    4.8899 N.2       1 <0>         0.0000
     11 N2          1.7568   -1.1003    4.0852 N.pl3     1 <0>         0.0000
     12 O1          2.2470   -1.4449    6.3520 O.3       1 <0>         0.0000
     13 H1          1.9184   -1.0196   -1.1980 H         1 <0>         0.0000
     14 H2          3.7609   -2.0773    0.0835 H         1 <0>         0.0000
     15 H3          0.0003   -0.0001   -0.0001 H         1 <0>         0.0000
     16 H4          3.6911   -2.1183    2.5532 H         1 <0>         0.0000
     17 H5         -0.0810   -0.0345    2.4703 H         1 <0>         0.0000
     18 H6          5.1027   -3.0234    6.3866 H         1 <0>         0.0000
     19 H7          3.1562   -2.0054    8.1403 H         1 <0>         0.0000
     20 H8          0.9297   -0.6567    4.4737 H         1 <0>         0.0000
@<TRIPOS>BOND
     1    1    3 ar
     2    1    2 ar
     3    1   13 1
     4    2    4 ar
     5    2   14 1
     6    3    5 ar
     7    3   15 1
     8    4    8 ar
     9    4   16 1
    10    5    8 ar
    11    5   17 1
    12    6    7 2
    13    6   10 1
    14    6   18 1
    15    7   12 1
    16    7   19 1
    17    8   11 1
    18    9   10 2
    19    9   11 1
    20    9   12 1
    21   11   20 1
