@<TRIPOS>MOLECULE
*****
   29    30     0     0     0
SMALL
NO_CHARGES

@<TRIPOS>ATOM
      1 C1         -1.1950    2.1319    1.7054 C.ar      1 <0>         0.0000
      2 C2         -2.2777    2.5839    2.4390 C.ar      1 <0>         0.0000
      3 C3         -1.2135    0.8236    1.2654 C.ar      1 <0>         0.0000
      4 C4         -3.3075    1.6978    2.6837 C.ar      1 <0>         0.0000
      5 C5          0.2630    0.9868   -0.8454 C.3       1 <0>         0.0000
      6 C6         -0.3854   -0.3653   -0.8633 C.3       1 <0>         0.0000
      7 C7         -0.0660    0.3010    0.4734 C.3       1 <0>         0.0000
      8 C8         -0.1814   -2.8567   -0.8573 C.3       1 <0>         0.0000
      9 C9         -5.4216    1.1416    3.6203 C.3       1 <0>         0.0000
     10 C10         0.3664   -1.5494   -1.3697 C.3       1 <0>         0.0000
     11 N1         -2.2348   -0.0216    1.5198 N.ar      1 <0>         0.0000
     12 N2         -3.2992    0.4228    2.2404 N.ar      1 <0>         0.0000
     13 N3          1.0428   -0.1925    1.3120 N.3       1 <0>         0.0000
     14 O1         -4.3962    2.1054    3.4046 O.3       1 <0>         0.0000
     15 H1         -0.3632    2.7939    1.4892 H         1 <0>         0.0000
     16 H2         -2.3097    3.6036    2.8068 H         1 <0>         0.0000
     17 H3          1.3032    1.0646   -1.1413 H         1 <0>         0.0000
     18 H4         -0.3380    1.8344   -1.1561 H         1 <0>         0.0000
     19 H5         -1.4268   -0.4134   -1.1654 H         1 <0>         0.0000
     20 H6         -0.1868   -2.8752    0.2388 H         1 <0>         0.0000
     21 H7          0.4361   -3.6905   -1.2079 H         1 <0>         0.0000
     22 H8         -1.2102   -2.9991   -1.2046 H         1 <0>         0.0000
     23 H9         -6.2280    1.5910    4.2049 H         1 <0>         0.0000
     24 H10        -5.0079    0.2808    4.1517 H         1 <0>         0.0000
     25 H11        -5.8131    0.8166    2.6534 H         1 <0>         0.0000
     26 H12         0.3502   -1.5825   -2.4745 H         1 <0>         0.0000
     27 H13         1.4323   -1.4906   -1.0828 H         1 <0>         0.0000
     28 H14         1.3568    0.5651    1.8630 H         1 <0>         0.0000
     29 H15         0.6862   -0.9237    1.8725 H         1 <0>         0.0000
@<TRIPOS>BOND
     1    1    2 ar
     2    1    3 ar
     3    1   15 1
     4    2    4 ar
     5    2   16 1
     6    3    7 1
     7    3   11 ar
     8    4   12 ar
     9    4   14 1
    10    5    6 1
    11    5    7 1
    12    5   17 1
    13    5   18 1
    14    6    7 1
    15    6   10 1
    16    6   19 1
    17    7   13 1
    18    8   10 1
    19    8   20 1
    20    8   21 1
    21    8   22 1
    22    9   14 1
    23    9   23 1
    24    9   24 1
    25    9   25 1
    26   10   26 1
    27   10   27 1
    28   11   12 ar
    29   13   28 1
    30   13   29 1
