@<TRIPOS>MOLECULE
*****
   23    24     0     0     0
SMALL
NO_CHARGES

@<TRIPOS>ATOM
      1 C1         -1.3787    2.3550    0.4810 C.ar      1 <0>         0.0000
      2 C2         -1.6604    3.5874    1.0704 C.ar      1 <0>         0.0000
      3 C3         -0.3011    1.6273    2.5172 C.ar      1 <0>         0.0000
      4 C4         -0.6991    1.3749    1.2044 C.ar      1 <0>         0.0000
      5 C5         -1.2624    3.8398    2.3832 C.ar      1 <0>         0.0000
      6 C6         -0.5827    2.8598    3.1067 C.ar      1 <0>         0.0000
      7 C7          1.0234   -0.6554    0.6700 C.3       1 <0>         0.0000
      8 C8          0.2543   -1.9634    0.9182 C.3       1 <0>         0.0000
      9 C9         -0.3806   -0.0199    0.5372 C.3       1 <0>         0.0000
     10 N1         -0.8911   -1.1431    1.3709 N.3       1 <0>         0.0000
     11 O1         -1.5425    5.0478    2.9473 O.3       1 <0>         0.0000
     12 O2         -0.1882    3.0946    4.3892 O.3       1 <0>         0.0000
     13 H1         -1.6923    2.1654   -0.5420 H         1 <0>         0.0000
     14 H2         -2.1909    4.3462    0.5017 H         1 <0>         0.0000
     15 H3          0.2292    0.8644    3.0817 H         1 <0>         0.0000
     16 H4          1.6155   -0.3135    1.5278 H         1 <0>         0.0000
     17 H5          1.6429   -0.6261   -0.2302 H         1 <0>         0.0000
     18 H6          0.0500   -2.5432    0.0104 H         1 <0>         0.0000
     19 H7          0.6758   -2.6249    1.6793 H         1 <0>         0.0000
     20 H8         -0.7630   -0.0512   -0.4969 H         1 <0>         0.0000
     21 H9         -1.8067   -1.4949    1.0907 H         1 <0>         0.0000
     22 H10        -1.2074    5.0786    3.8572 H         1 <0>         0.0000
     23 H11         0.2688    2.3173    4.7470 H         1 <0>         0.0000
@<TRIPOS>BOND
     1    1    2 ar
     2    1    4 ar
     3    1   13 1
     4    2    5 ar
     5    2   14 1
     6    3    4 ar
     7    3    6 ar
     8    3   15 1
     9    4    9 1
    10    5    6 ar
    11    5   11 1
    12    6   12 1
    13    7    8 1
    14    7    9 1
    15    7   16 1
    16    7   17 1
    17    8   10 1
    18    8   18 1
    19    8   19 1
    20    9   10 1
    21    9   20 1
    22   10   21 1
    23   11   22 1
    24   12   23 1
