@<TRIPOS>MOLECULE
*****
   42    42     0     0     0
SMALL
NO_CHARGES

@<TRIPOS>ATOM
      1 C1         -0.0053   -2.0252   -0.8999 C.3       1 <0>         0.0000
      2 C2          0.0660   -3.2269    0.0529 C.3       1 <0>         0.0000
      3 C3         -0.9268   -1.0212   -0.1885 C.3       1 <0>         0.0000
      4 C4          0.1259   -2.5918    1.4406 C.3       1 <0>         0.0000
      5 C5         -0.2138   -3.4713    2.6372 C.3       1 <0>         0.0000
      6 C6         -0.2033   -2.7137    3.9753 C.3       1 <0>         0.0000
      7 C7         -2.9323   -0.9691    8.9931 C.3       1 <0>         0.0000
      8 C8         -1.5352   -1.4399    8.5687 C.3       1 <0>         0.0000
      9 C9         -2.8870   -0.1749   10.3032 C.3       1 <0>         0.0000
     10 C10        -0.2012   -3.6568    5.1768 C.3       1 <0>         0.0000
     11 C11        -1.6085   -2.2404    7.2661 C.3       1 <0>         0.0000
     12 C12        -4.2500    0.3408   10.7144 C.3       1 <0>         0.0000
     13 N1         -0.8680   -1.4199    1.2972 N.4       1 <0>         0.0000
     14 O1          0.8322   -1.5414    6.4268 O.2       1 <0>         0.0000
     15 O2          0.5600   -3.7317    7.7301 O.2       1 <0>         0.0000
     16 F1         -4.1894    1.0319   11.8744 F         1 <0>         0.0000
     17 F2         -5.1416   -0.6686   10.8895 F         1 <0>         0.0000
     18 F3         -4.7762    1.1735    9.7757 F         1 <0>         0.0000
     19 S1          0.0592   -2.7552    6.7552 S.o2      1 <0>         0.0000
     20 H1          0.9879   -1.5920   -1.0431 H         1 <0>         0.0000
     21 H2         -0.3994   -2.2872   -1.8831 H         1 <0>         0.0000
     22 H3         -0.8236   -3.8610   -0.0366 H         1 <0>         0.0000
     23 H4          0.9414   -3.8541   -0.1257 H         1 <0>         0.0000
     24 H5         -0.6105    0.0175   -0.2782 H         1 <0>         0.0000
     25 H6         -1.9679   -1.1026   -0.5007 H         1 <0>         0.0000
     26 H7          1.0982   -2.1118    1.5884 H         1 <0>         0.0000
     27 H8         -1.1767   -3.9719    2.4706 H         1 <0>         0.0000
     28 H9          0.5414   -4.2646    2.6559 H         1 <0>         0.0000
     29 H10        -1.0704   -2.0427    4.0434 H         1 <0>         0.0000
     30 H11         0.6878   -2.0813    4.0452 H         1 <0>         0.0000
     31 H12        -3.5948   -1.8326    9.1164 H         1 <0>         0.0000
     32 H13        -3.3659   -0.3423    8.2058 H         1 <0>         0.0000
     33 H14        -0.8748   -0.5783    8.4275 H         1 <0>         0.0000
     34 H15        -1.0930   -2.0660    9.3497 H         1 <0>         0.0000
     35 H16        -2.5122   -0.7925   11.1246 H         1 <0>         0.0000
     36 H17        -2.2278    0.6938   10.2145 H         1 <0>         0.0000
     37 H18        -1.1183   -4.2446    5.2760 H         1 <0>         0.0000
     38 H19         0.6452   -4.3496    5.1431 H         1 <0>         0.0000
     39 H20        -2.1949   -3.1560    7.3869 H         1 <0>         0.0000
     40 H21        -2.0230   -1.6403    6.4495 H         1 <0>         0.0000
     41 H22        -0.6024   -0.6332    1.8970 H         1 <0>         0.0000
     42 H23        -1.7935   -1.7234    1.6152 H         1 <0>         0.0000
@<TRIPOS>BOND
     1    1    2 1
     2    1    3 1
     3    1   20 1
     4    1   21 1
     5    2    4 1
     6    2   22 1
     7    2   23 1
     8    3   13 1
     9    3   24 1
    10    3   25 1
    11    4    5 1
    12    4   13 1
    13    4   26 1
    14    5    6 1
    15    5   27 1
    16    5   28 1
    17    6   10 1
    18    6   29 1
    19    6   30 1
    20    7    8 1
    21    7    9 1
    22    7   31 1
    23    7   32 1
    24    8   11 1
    25    8   33 1
    26    8   34 1
    27    9   12 1
    28    9   35 1
    29    9   36 1
    30   10   19 1
    31   10   37 1
    32   10   38 1
    33   11   19 1
    34   11   39 1
    35   11   40 1
    36   12   16 1
    37   12   17 1
    38   12   18 1
    39   13   41 1
    40   13   42 1
    41   14   19 2
    42   15   19 2
