@<TRIPOS>MOLECULE
*****
   36    36     0     0     0
SMALL
NO_CHARGES

@<TRIPOS>ATOM
      1 C1         -0.7278    0.0223    0.4415 C.3       1 <0>         0.0000
      2 C2         -0.8837   -0.6944    1.7895 C.3       1 <0>         0.0000
      3 C3          0.7909    0.1054    0.2230 C.3       1 <0>         0.0000
      4 C4          0.1951   -1.7754    1.7555 C.3       1 <0>         0.0000
      5 C5          0.5943   -2.3975    3.0866 C.3       1 <0>         0.0000
      6 C6          2.2028   -4.9330    6.9537 C.3       1 <0>         0.0000
      7 C7          2.8172   -4.2926    8.2047 C.3       1 <0>         0.0000
      8 C8          1.6793   -3.4717    2.9696 C.3       1 <0>         0.0000
      9 C9          2.2778   -3.9613    5.7718 C.3       1 <0>         0.0000
     10 C10         2.7505   -5.2100    9.4115 C.3       1 <0>         0.0000
     11 N1          1.3720   -1.0330    1.0838 N.4       1 <0>         0.0000
     12 O1          2.4433   -5.8444    3.8772 O.2       1 <0>         0.0000
     13 O2          0.1255   -4.9566    4.5299 O.2       1 <0>         0.0000
     14 F1          3.3013   -4.6199   10.4962 F         1 <0>         0.0000
     15 F2          1.4709   -5.5288    9.7260 F         1 <0>         0.0000
     16 F3          3.4145   -6.3707    9.1954 F         1 <0>         0.0000
     17 S1          1.5635   -4.7483    4.2953 S.o2      1 <0>         0.0000
     18 H1         -1.1951   -0.5596   -0.3571 H         1 <0>         0.0000
     19 H2         -1.1767    1.0168    0.4360 H         1 <0>         0.0000
     20 H3         -0.7108   -0.0101    2.6282 H         1 <0>         0.0000
     21 H4         -1.8719   -1.1393    1.9202 H         1 <0>         0.0000
     22 H5          1.1058   -0.0477   -0.8086 H         1 <0>         0.0000
     23 H6          1.2229    1.0357    0.5916 H         1 <0>         0.0000
     24 H7         -0.0858   -2.5559    1.0421 H         1 <0>         0.0000
     25 H8         -0.3107   -2.8641    3.4914 H         1 <0>         0.0000
     26 H9          0.8853   -1.6112    3.7942 H         1 <0>         0.0000
     27 H10         2.7395   -5.8517    6.7044 H         1 <0>         0.0000
     28 H11         1.1591   -5.1966    7.1428 H         1 <0>         0.0000
     29 H12         3.8718   -4.0479    8.0477 H         1 <0>         0.0000
     30 H13         2.2947   -3.3708    8.4774 H         1 <0>         0.0000
     31 H14         1.5508   -4.0882    2.0731 H         1 <0>         0.0000
     32 H15         2.7046   -3.0893    2.9793 H         1 <0>         0.0000
     33 H16         1.6999   -3.0509    5.9602 H         1 <0>         0.0000
     34 H17         3.3112   -3.7050    5.5195 H         1 <0>         0.0000
     35 H18         1.9501   -1.6730    0.5312 H         1 <0>         0.0000
     36 H19         1.9848   -0.6455    1.8078 H         1 <0>         0.0000
@<TRIPOS>BOND
     1    1    2 1
     2    1    3 1
     3    1   18 1
     4    1   19 1
     5    2    4 1
     6    2   20 1
     7    2   21 1
     8    3   11 1
     9    3   22 1
    10    3   23 1
    11    4    5 1
    12    4   11 1
    13    4   24 1
    14    5    8 1
    15    5   25 1
    16    5   26 1
    17    6    7 1
    18    6    9 1
    19    6   27 1
    20    6   28 1
    21    7   10 1
    22    7   29 1
    23    7   30 1
    24    8   17 1
    25    8   31 1
    26    8   32 1
    27    9   17 1
    28    9   33 1
    29    9   34 1
    30   10   14 1
    31   10   15 1
    32   10   16 1
    33   11   35 1
    34   11   36 1
    35   12   17 2
    36   13   17 2
