@<TRIPOS>MOLECULE
*****
   45    48     0     0     0
SMALL
NO_CHARGES

@<TRIPOS>ATOM
      1 C1          3.0911    4.3554   -5.6080 C.2       1 <0>         0.0000
      2 C2          3.9144    3.2901   -5.3090 C.2       1 <0>         0.0000
      3 C3          3.0316   -0.5892   -3.9523 C.2       1 <0>         0.0000
      4 C4          4.2477    3.3664   -7.4753 C.2       1 <0>         0.0000
      5 C5          2.2533    1.2365   -3.0546 C.2       1 <0>         0.0000
      6 C6          1.2853   -1.0695   -1.1505 C.2       1 <0>         0.0000
      7 C7          3.0492   -2.0209   -4.3901 C.3       1 <0>         0.0000
      8 C8          2.1555   -2.9091   -3.5332 C.3       1 <0>         0.0000
      9 C9          0.7923   -2.2578   -3.2771 C.3       1 <0>         0.0000
     10 C10        -0.9834   -0.9469    1.7425 C.3       1 <0>         0.0000
     11 C11         0.3754   -1.2899    1.1527 C.3       1 <0>         0.0000
     12 C12        -1.2044   -1.0142   -0.6457 C.3       1 <0>         0.0000
     13 C13         0.9407   -0.8922   -2.6076 C.3       1 <0>         0.0000
     14 C14        -1.9367   -1.3554    0.6352 C.3       1 <0>         0.0000
     15 C15         4.1397    2.7129   -3.9414 C.3       1 <0>         0.0000
     16 C16         4.7614    3.0421   -8.8239 C.3       1 <0>         0.0000
     17 N1          4.5781    2.7215   -6.3786 N.2       1 <0>         0.0000
     18 N2          3.9042    0.3014   -4.3209 N.2       1 <0>         0.0000
     19 N3          2.0240   -0.1185   -3.1891 N.am      1 <0>         0.0000
     20 N4          3.4441    1.4665   -3.7618 N.am      1 <0>         0.0000
     21 N5          0.2078   -1.1171   -0.2844 N.am      1 <0>         0.0000
     22 O1          1.5785    2.0557   -2.4478 O.2       1 <0>         0.0000
     23 O2          2.4609   -1.1667   -0.7947 O.2       1 <0>         0.0000
     24 F1         -2.1780   -2.6852    0.6928 F         1 <0>         0.0000
     25 F2         -3.1159   -0.7156    0.7316 F         1 <0>         0.0000
     26 F3          5.6356    1.9863   -8.8510 F         1 <0>         0.0000
     27 F4          3.7868    2.7059   -9.7275 F         1 <0>         0.0000
     28 F5          5.4407    4.0802   -9.4043 F         1 <0>         0.0000
     29 S1          3.1439    4.6678   -7.2936 S.3       1 <0>         0.0000
     30 H1          2.4806    4.9482   -4.9416 H         1 <0>         0.0000
     31 H2          2.7061   -2.0442   -5.4315 H         1 <0>         0.0000
     32 H3          4.0803   -2.3897   -4.3807 H         1 <0>         0.0000
     33 H4          2.0148   -3.8750   -4.0315 H         1 <0>         0.0000
     34 H5          2.6545   -3.1190   -2.5802 H         1 <0>         0.0000
     35 H6          0.2684   -2.1371   -4.2334 H         1 <0>         0.0000
     36 H7          0.1834   -2.9258   -2.6565 H         1 <0>         0.0000
     37 H8         -1.1716   -1.4889    2.6734 H         1 <0>         0.0000
     38 H9         -1.0621    0.1283    1.9386 H         1 <0>         0.0000
     39 H10         1.1819   -0.6551    1.5315 H         1 <0>         0.0000
     40 H11         0.6386   -2.3384    1.3315 H         1 <0>         0.0000
     41 H12        -1.4366   -1.7064   -1.4594 H         1 <0>         0.0000
     42 H13        -1.4020    0.0126   -0.9693 H         1 <0>         0.0000
     43 H14         0.0146   -0.3166   -2.6582 H         1 <0>         0.0000
     44 H15         5.2064    2.5317   -3.7697 H         1 <0>         0.0000
     45 H16         3.7975    3.4025   -3.1626 H         1 <0>         0.0000
@<TRIPOS>BOND
     1    1    2 2
     2    1   29 1
     3    1   30 1
     4    2   15 1
     5    2   17 1
     6    3    7 1
     7    3   18 2
     8    3   19 1
     9    4   16 1
    10    4   17 2
    11    4   29 1
    12    5   19 am
    13    5   20 am
    14    5   22 2
    15    6   13 1
    16    6   21 am
    17    6   23 2
    18    7    8 1
    19    7   31 1
    20    7   32 1
    21    8    9 1
    22    8   33 1
    23    8   34 1
    24    9   13 1
    25    9   35 1
    26    9   36 1
    27   10   11 1
    28   10   14 1
    29   10   37 1
    30   10   38 1
    31   11   21 1
    32   11   39 1
    33   11   40 1
    34   12   14 1
    35   12   21 1
    36   12   41 1
    37   12   42 1
    38   13   19 1
    39   13   43 1
    40   14   24 1
    41   14   25 1
    42   15   20 1
    43   15   44 1
    44   15   45 1
    45   16   26 1
    46   16   27 1
    47   16   28 1
    48   18   20 1
