@<TRIPOS>MOLECULE
*****
   33    34     0     0     0
SMALL
NO_CHARGES

@<TRIPOS>ATOM
      1 C1         -3.6432   -7.0118    2.0307 C.ar      1 <0>         0.0000
      2 C2         -3.4579   -7.1376    0.6504 C.ar      1 <0>         0.0000
      3 C3         -3.6060   -5.7364    2.6112 C.ar      1 <0>         0.0000
      4 C4         -3.2314   -5.9978   -0.1303 C.ar      1 <0>         0.0000
      5 C5         -3.3884   -4.6006    1.8290 C.ar      1 <0>         0.0000
      6 C6         -3.1887   -4.7166    0.4416 C.ar      1 <0>         0.0000
      7 C7         -4.2299   -2.4519   -0.4596 C.2       1 <0>         0.0000
      8 C8         -1.7784   -2.6961   -0.0408 C.2       1 <0>         0.0000
      9 C9          0.5858    0.8859   -2.2197 C.3       1 <0>         0.0000
     10 C10        -0.2118    0.0481   -3.2067 C.3       1 <0>         0.0000
     11 C11        -0.5289   -0.0184   -1.7327 C.3       1 <0>         0.0000
     12 C12        -1.8283    0.5973   -1.2444 C.3       1 <0>         0.0000
     13 C13        -0.0953   -1.2616   -0.9851 C.3       1 <0>         0.0000
     14 C14        -2.9652   -3.5195   -0.4343 C.3       1 <0>         0.0000
     15 O1         -4.9664   -2.4720    0.5422 O.co2     1 <0>         0.0000
     16 O2         -4.2428   -1.7616   -1.5046 O.co2     1 <0>         0.0000
     17 O3         -1.4597   -2.3637    1.0911 O.2       1 <0>         0.0000
     18 O4         -1.0772   -2.3002   -1.1523 O.3       1 <0>         0.0000
     19 H1         -3.8188   -7.8930    2.6453 H         1 <0>         0.0000
     20 H2         -3.4883   -8.1193    0.1805 H         1 <0>         0.0000
     21 H3         -3.7587   -5.6271    3.6836 H         1 <0>         0.0000
     22 H4         -3.0882   -6.1019   -1.2047 H         1 <0>         0.0000
     23 H5         -3.3813   -3.6136    2.2728 H         1 <0>         0.0000
     24 H6          1.6169    0.5982   -2.0236 H         1 <0>         0.0000
     25 H7          0.4101    1.9587   -2.1964 H         1 <0>         0.0000
     26 H8         -0.9253    0.5537   -3.8514 H         1 <0>         0.0000
     27 H9          0.2788   -0.8069   -3.6650 H         1 <0>         0.0000
     28 H10        -1.7587    0.8527   -0.1797 H         1 <0>         0.0000
     29 H11        -2.6638   -0.0983   -1.3782 H         1 <0>         0.0000
     30 H12        -2.0527    1.5166   -1.7987 H         1 <0>         0.0000
     31 H13         0.0328   -1.0570    0.0807 H         1 <0>         0.0000
     32 H14         0.8474   -1.6497   -1.3886 H         1 <0>         0.0000
     33 H15        -2.8339   -3.8242   -1.4724 H         1 <0>         0.0000
@<TRIPOS>BOND
     1    1    3 ar
     2    1    2 ar
     3    1   19 1
     4    2    4 ar
     5    2   20 1
     6    3    5 ar
     7    3   21 1
     8    4    6 ar
     9    4   22 1
    10    5    6 ar
    11    5   23 1
    12    6   14 1
    13    7   14 1
    14    7   15 1
    15    7   16 2
    16    8   14 1
    17    8   17 2
    18    8   18 1
    19    9   10 1
    20    9   11 1
    21    9   24 1
    22    9   25 1
    23   10   11 1
    24   10   26 1
    25   10   27 1
    26   11   12 1
    27   11   13 1
    28   12   28 1
    29   12   29 1
    30   12   30 1
    31   13   18 1
    32   13   31 1
    33   13   32 1
    34   14   33 1
