@<TRIPOS>MOLECULE
*****
   54    56     0     0     0
SMALL
NO_CHARGES

@<TRIPOS>ATOM
      1 C1          7.1876   -0.5774   -1.1147 C.ar      1 <0>         0.0000
      2 C2          6.4464    0.1188   -2.0631 C.ar      1 <0>         0.0000
      3 C3          7.4475   -0.0095    0.1388 C.ar      1 <0>         0.0000
      4 C4          6.1392    1.9761   -0.4868 C.ar      1 <0>         0.0000
      5 C5          5.9274    1.3727   -1.7403 C.ar      1 <0>         0.0000
      6 C6          6.9231    1.2618    0.4399 C.ar      1 <0>         0.0000
      7 C7          9.1389   -3.0955    0.5138 C.2       1 <0>         0.0000
      8 C8          7.9361   -2.5993    2.7347 C.2       1 <0>         0.0000
      9 C9          8.3364   -0.7684    1.0826 C.2       1 <0>         0.0000
     10 C10        10.2202   -3.7145    1.3752 C.3       1 <0>         0.0000
     11 C11         9.2205   -2.7987    3.5217 C.3       1 <0>         0.0000
     12 C12        10.4878   -2.9229    2.6620 C.3       1 <0>         0.0000
     13 C13         6.5788    8.5319   -0.3184 C.3       1 <0>         0.0000
     14 C14         7.1067    7.8111   -1.5671 C.3       1 <0>         0.0000
     15 C15         5.3823    7.7853    0.2882 C.3       1 <0>         0.0000
     16 C16         7.4476    6.3442   -1.2678 C.3       1 <0>         0.0000
     17 C17         5.7297    6.3179    0.5863 C.3       1 <0>         0.0000
     18 C18         8.0468   -2.2786    1.2365 C.3       1 <0>         0.0000
     19 C19         6.2497    5.6120   -0.6706 C.3       1 <0>         0.0000
     20 C20         3.2450    1.8564   -2.5340 C.3       1 <0>         0.0000
     21 C21         5.6238    3.3592   -0.1424 C.3       1 <0>         0.0000
     22 O1          9.0868   -3.2418   -0.6947 O.2       1 <0>         0.0000
     23 O2          6.8354   -2.7019    3.2446 O.2       1 <0>         0.0000
     24 O3          9.2443   -0.2383    1.6968 O.2       1 <0>         0.0000
     25 O4          5.1778    3.6052   -3.0902 O.2       1 <0>         0.0000
     26 O5          5.1642    1.3519   -4.2819 O.2       1 <0>         0.0000
     27 O6          6.6805    4.2689   -0.3995 O.3       1 <0>         0.0000
     28 S1          4.9481    2.1544   -3.0691 S.o2      1 <0>         0.0000
     29 Cl1         7.2053    1.9577    2.0203 Cl        1 <0>         0.0000
     30 H1          7.5981   -1.5537   -1.3570 H         1 <0>         0.0000
     31 H2          6.2729   -0.2960   -3.0500 H         1 <0>         0.0000
     32 H3          9.8686   -4.7281    1.6213 H         1 <0>         0.0000
     33 H4         11.1151   -3.8333    0.7593 H         1 <0>         0.0000
     34 H5          9.3021   -1.9582    4.2193 H         1 <0>         0.0000
     35 H6          9.0615   -3.6934    4.1340 H         1 <0>         0.0000
     36 H7         10.8586   -1.9285    2.4063 H         1 <0>         0.0000
     37 H8         11.2720   -3.4223    3.2383 H         1 <0>         0.0000
     38 H9          6.2956    9.5620   -0.5653 H         1 <0>         0.0000
     39 H10         7.3811    8.5952    0.4295 H         1 <0>         0.0000
     40 H11         6.3458    7.8531   -2.3584 H         1 <0>         0.0000
     41 H12         7.9917    8.3253   -1.9589 H         1 <0>         0.0000
     42 H13         5.0450    8.2824    1.2051 H         1 <0>         0.0000
     43 H14         4.5393    7.8226   -0.4157 H         1 <0>         0.0000
     44 H15         7.7637    5.8207   -2.1755 H         1 <0>         0.0000
     45 H16         8.2791    6.2902   -0.5533 H         1 <0>         0.0000
     46 H17         6.5078    6.2641    1.3587 H         1 <0>         0.0000
     47 H18         4.8485    5.7976    0.9809 H         1 <0>         0.0000
     48 H19         7.0870   -2.5132    0.7762 H         1 <0>         0.0000
     49 H20         5.4502    5.5690   -1.4249 H         1 <0>         0.0000
     50 H21         2.6083    2.2862   -3.3104 H         1 <0>         0.0000
     51 H22         3.0883    0.7796   -2.4604 H         1 <0>         0.0000
     52 H23         3.0668    2.3492   -1.5778 H         1 <0>         0.0000
     53 H24         4.7527    3.6145   -0.7508 H         1 <0>         0.0000
     54 H25         5.3187    3.3877    0.9097 H         1 <0>         0.0000
@<TRIPOS>BOND
     1    1    2 ar
     2    1    3 ar
     3    1   30 1
     4    2    5 ar
     5    2   31 1
     6    3    6 ar
     7    3    9 1
     8    4    5 ar
     9    4    6 ar
    10    4   21 1
    11    5   28 1
    12    6   29 1
    13    7   10 1
    14    7   18 1
    15    7   22 2
    16    8   11 1
    17    8   18 1
    18    8   23 2
    19    9   18 1
    20    9   24 2
    21   10   12 1
    22   10   32 1
    23   10   33 1
    24   11   12 1
    25   11   34 1
    26   11   35 1
    27   12   36 1
    28   12   37 1
    29   13   15 1
    30   13   14 1
    31   13   38 1
    32   13   39 1
    33   14   16 1
    34   14   40 1
    35   14   41 1
    36   15   17 1
    37   15   42 1
    38   15   43 1
    39   16   19 1
    40   16   44 1
    41   16   45 1
    42   17   19 1
    43   17   46 1
    44   17   47 1
    45   18   48 1
    46   19   27 1
    47   19   49 1
    48   20   28 1
    49   20   50 1
    50   20   51 1
    51   20   52 1
    52   21   27 1
    53   21   53 1
    54   21   54 1
    55   25   28 2
    56   26   28 2
