@<TRIPOS>MOLECULE
*****
   54    56     0     0     0
SMALL
NO_CHARGES

@<TRIPOS>ATOM
      1 C1          6.8013   -1.2038   -1.6968 C.ar      1 <0>         0.0000
      2 C2          6.1398   -0.5022   -2.6995 C.ar      1 <0>         0.0000
      3 C3          7.2997   -0.5323   -0.5742 C.ar      1 <0>         0.0000
      4 C4          6.3913    1.5850   -1.4308 C.ar      1 <0>         0.0000
      5 C5          5.9468    0.8721   -2.5602 C.ar      1 <0>         0.0000
      6 C6          7.0819    0.8523   -0.4471 C.ar      1 <0>         0.0000
      7 C7          8.3314   -3.8240    0.2217 C.2       1 <0>         0.0000
      8 C8          7.5039   -2.7291    2.3971 C.2       1 <0>         0.0000
      9 C9          8.1040   -1.3208    0.4196 C.2       1 <0>         0.0000
     10 C10         9.3194   -4.5443    1.1151 C.3       1 <0>         0.0000
     11 C11         8.8030   -3.0611    3.1122 C.3       1 <0>         0.0000
     12 C12         9.9038   -3.6361    2.2060 C.3       1 <0>         0.0000
     13 C13         2.7081    6.5876    0.7116 C.3       1 <0>         0.0000
     14 C14         4.0668    6.8089    0.0322 C.3       1 <0>         0.0000
     15 C15         1.9769    5.3806    0.1068 C.3       1 <0>         0.0000
     16 C16         4.9326    5.5399    0.0831 C.3       1 <0>         0.0000
     17 C17         2.8462    4.1157    0.1523 C.3       1 <0>         0.0000
     18 C18         7.5178   -2.6782    0.8614 C.3       1 <0>         0.0000
     19 C19         4.1917    4.3462   -0.5295 C.3       1 <0>         0.0000
     20 C20         6.4009    2.4925   -4.8445 C.3       1 <0>         0.0000
     21 C21         6.0925    3.0545   -1.2127 C.3       1 <0>         0.0000
     22 O1          8.1440   -4.1249   -0.9441 O.2       1 <0>         0.0000
     23 O2          6.4635   -2.5241    2.9939 O.2       1 <0>         0.0000
     24 O3          9.1715   -0.9244    0.8526 O.2       1 <0>         0.0000
     25 O4          4.5779    0.5778   -4.8160 O.2       1 <0>         0.0000
     26 O5          4.1365    2.6860   -3.4532 O.2       1 <0>         0.0000
     27 O6          4.9319    3.1219   -0.4006 O.3       1 <0>         0.0000
     28 S1          5.0650    1.6618   -3.9505 S.o2      1 <0>         0.0000
     29 Cl1         7.6052    1.6737    1.0070 Cl        1 <0>         0.0000
     30 H1          6.9591   -2.2741   -1.7957 H         1 <0>         0.0000
     31 H2          5.7587   -1.0107   -3.5783 H         1 <0>         0.0000
     32 H3          8.7654   -5.3768    1.5750 H         1 <0>         0.0000
     33 H4         10.0888   -4.9891    0.4792 H         1 <0>         0.0000
     34 H5          9.1429   -2.1416    3.6009 H         1 <0>         0.0000
     35 H6          8.5361   -3.7578    3.9140 H         1 <0>         0.0000
     36 H7         10.4606   -2.8214    1.7391 H         1 <0>         0.0000
     37 H8         10.6133   -4.2077    2.8112 H         1 <0>         0.0000
     38 H9          2.0905    7.4892    0.6244 H         1 <0>         0.0000
     39 H10         2.8657    6.4149    1.7852 H         1 <0>         0.0000
     40 H11         3.9036    7.0945   -1.0163 H         1 <0>         0.0000
     41 H12         4.5999    7.6430    0.5030 H         1 <0>         0.0000
     42 H13         1.0340    5.2015    0.6359 H         1 <0>         0.0000
     43 H14         1.7122    5.6028   -0.9359 H         1 <0>         0.0000
     44 H15         5.8800    5.7134   -0.4415 H         1 <0>         0.0000
     45 H16         5.1810    5.2944    1.1238 H         1 <0>         0.0000
     46 H17         3.0314    3.8252    1.1944 H         1 <0>         0.0000
     47 H18         2.3428    3.2748   -0.3349 H         1 <0>         0.0000
     48 H19         6.4863   -2.7586    0.5178 H         1 <0>         0.0000
     49 H20         4.0207    4.5308   -1.6006 H         1 <0>         0.0000
     50 H21         5.9313    2.9683   -5.7081 H         1 <0>         0.0000
     51 H22         6.8654    3.2408   -4.2016 H         1 <0>         0.0000
     52 H23         7.1233    1.7408   -5.1646 H         1 <0>         0.0000
     53 H24         6.9486    3.5366   -0.7268 H         1 <0>         0.0000
     54 H25         5.9152    3.5634   -2.1631 H         1 <0>         0.0000
@<TRIPOS>BOND
     1    1    2 ar
     2    1    3 ar
     3    1   30 1
     4    2    5 ar
     5    2   31 1
     6    3    6 ar
     7    3    9 1
     8    4    5 ar
     9    4    6 ar
    10    4   21 1
    11    5   28 1
    12    6   29 1
    13    7   10 1
    14    7   18 1
    15    7   22 2
    16    8   11 1
    17    8   18 1
    18    8   23 2
    19    9   18 1
    20    9   24 2
    21   10   12 1
    22   10   32 1
    23   10   33 1
    24   11   12 1
    25   11   34 1
    26   11   35 1
    27   12   36 1
    28   12   37 1
    29   13   15 1
    30   13   14 1
    31   13   38 1
    32   13   39 1
    33   14   16 1
    34   14   40 1
    35   14   41 1
    36   15   17 1
    37   15   42 1
    38   15   43 1
    39   16   19 1
    40   16   44 1
    41   16   45 1
    42   17   19 1
    43   17   46 1
    44   17   47 1
    45   18   48 1
    46   19   27 1
    47   19   49 1
    48   20   28 1
    49   20   50 1
    50   20   51 1
    51   20   52 1
    52   21   27 1
    53   21   53 1
    54   21   54 1
    55   25   28 2
    56   26   28 2
