@<TRIPOS>MOLECULE
*****
   53    57     0     0     0
SMALL
NO_CHARGES

@<TRIPOS>ATOM
      1 C1         -0.9024    1.3998    1.5945 C.ar      1 <0>         0.0000
      2 C2         -0.8315    0.2401    0.7846 C.ar      1 <0>         0.0000
      3 C3         -5.2453    3.7832    4.8585 C.ar      1 <0>         0.0000
      4 C4         -1.9687    1.5981    2.4605 C.ar      1 <0>         0.0000
      5 C5         -4.8290    2.8479    3.9034 C.ar      1 <0>         0.0000
      6 C6         -5.0484   -1.2259   -0.9293 C.ar      1 <0>         0.0000
      7 C7         -6.6846   -2.6461    0.1397 C.ar      1 <0>         0.0000
      8 C8         -1.8136   -0.7428    0.8314 C.ar      1 <0>         0.0000
      9 C9         -5.4907    3.3992    6.1734 C.ar      1 <0>         0.0000
     10 C10        -5.9818   -0.8617   -1.9012 C.ar      1 <0>         0.0000
     11 C11        -7.6325   -2.2968   -0.8278 C.ar      1 <0>         0.0000
     12 C12        -4.8876    1.1171    5.6084 C.ar      1 <0>         0.0000
     13 C13        -2.9875    0.6256    2.5132 C.ar      1 <0>         0.0000
     14 C14        -4.6531    1.5065    4.2744 C.ar      1 <0>         0.0000
     15 C15        -4.1982    0.5168    3.2762 C.2       1 <0>         0.0000
     16 C16        -5.3869   -2.1214    0.0972 C.ar      1 <0>         0.0000
     17 C17        -2.8905   -0.5473    1.7137 C.ar      1 <0>         0.0000
     18 C18        -5.3158    2.0574    6.5544 C.ar      1 <0>         0.0000
     19 C19        -7.2601   -1.4099   -1.8308 C.ar      1 <0>         0.0000
     20 C20        -4.7871   -0.6967    2.9235 C.2       1 <0>         0.0000
     21 C21        -6.0448   -1.3118    3.4058 C.2       1 <0>         0.0000
     22 C22        -6.4243   -0.9617   10.2762 C.3       1 <0>         0.0000
     23 C23        -7.3104    0.2543   10.1142 C.3       1 <0>         0.0000
     24 C24        -5.8482    0.3327    9.7404 C.3       1 <0>         0.0000
     25 C25        -4.3703   -2.4983    1.1577 C.3       1 <0>         0.0000
     26 C26        -5.4576    0.4031    8.2922 C.3       1 <0>         0.0000
     27 N1         -3.9766   -1.3540    1.9915 N.pl3     1 <0>         0.0000
     28 O1         -6.2983   -2.5002    3.3123 O.2       1 <0>         0.0000
     29 O2         -6.9559   -0.4826    3.9744 O.3       1 <0>         0.0000
     30 O3         -5.5839    1.7682    7.8588 O.3       1 <0>         0.0000
     31 F1         -8.1737   -1.0618   -2.7749 F         1 <0>         0.0000
     32 H1         -0.1085    2.1390    1.5337 H         1 <0>         0.0000
     33 H2          0.0140    0.1115    0.1141 H         1 <0>         0.0000
     34 H3         -5.3888    4.8210    4.5693 H         1 <0>         0.0000
     35 H4         -2.0236    2.4836    3.0874 H         1 <0>         0.0000
     36 H5         -4.6602    3.1474    2.8735 H         1 <0>         0.0000
     37 H6         -4.0499   -0.7989   -0.9691 H         1 <0>         0.0000
     38 H7         -6.9645   -3.3154    0.9473 H         1 <0>         0.0000
     39 H8         -1.7336   -1.6289    0.2093 H         1 <0>         0.0000
     40 H9         -5.8203    4.1138    6.9218 H         1 <0>         0.0000
     41 H10        -5.7343   -0.1706   -2.7012 H         1 <0>         0.0000
     42 H11        -8.6428   -2.6936   -0.8044 H         1 <0>         0.0000
     43 H12        -4.7234    0.0824    5.8834 H         1 <0>         0.0000
     44 H13        -6.1405   -1.2652   11.2792 H         1 <0>         0.0000
     45 H14        -6.5604   -1.7858    9.5809 H         1 <0>         0.0000
     46 H15        -8.0349    0.2514    9.3046 H         1 <0>         0.0000
     47 H16        -7.6355    0.7778   11.0080 H         1 <0>         0.0000
     48 H17        -5.2016    0.8943   10.4099 H         1 <0>         0.0000
     49 H18        -4.7662   -3.2768    1.8053 H         1 <0>         0.0000
     50 H19        -3.4552   -2.8771    0.6984 H         1 <0>         0.0000
     51 H20        -6.1119   -0.2371    7.6858 H         1 <0>         0.0000
     52 H21        -4.4204    0.0710    8.1507 H         1 <0>         0.0000
     53 H22        -6.6215    0.4338    4.0060 H         1 <0>         0.0000
@<TRIPOS>BOND
     1    1    2 ar
     2    1    4 ar
     3    1   32 1
     4    2    8 ar
     5    2   33 1
     6    3    5 ar
     7    3    9 ar
     8    3   34 1
     9    4   13 ar
    10    4   35 1
    11    5   14 ar
    12    5   36 1
    13    6   10 ar
    14    6   16 ar
    15    6   37 1
    16    7   11 ar
    17    7   16 ar
    18    7   38 1
    19    8   17 ar
    20    8   39 1
    21    9   18 ar
    22    9   40 1
    23   10   19 ar
    24   10   41 1
    25   11   19 ar
    26   11   42 1
    27   12   14 ar
    28   12   18 ar
    29   12   43 1
    30   13   15 1
    31   13   17 ar
    32   14   15 1
    33   15   20 2
    34   16   25 1
    35   17   27 1
    36   18   30 1
    37   19   31 1
    38   20   21 1
    39   20   27 1
    40   21   28 2
    41   21   29 1
    42   22   23 1
    43   22   24 1
    44   22   44 1
    45   22   45 1
    46   23   24 1
    47   23   46 1
    48   23   47 1
    49   24   26 1
    50   24   48 1
    51   25   27 1
    52   25   49 1
    53   25   50 1
    54   26   30 1
    55   26   51 1
    56   26   52 1
    57   29   53 1
