@<TRIPOS>MOLECULE
*****
   53    55     0     0     0
SMALL
NO_CHARGES

@<TRIPOS>ATOM
      1 C1         -2.8201   -1.0753   -1.3356 C.2       1 <0>         0.0000
      2 C2         -1.7649   -0.1169   -1.0864 C.2       1 <0>         0.0000
      3 C3         -0.7272   -0.6729   -0.3868 C.2       1 <0>         0.0000
      4 C4         -4.0680   -0.8536   -2.0460 C.2       1 <0>         0.0000
      5 C5         -2.5517   -2.3236   -0.8129 C.2       1 <0>         0.0000
      6 C6         -4.5841   -3.2810   -1.6732 C.2       1 <0>         0.0000
      7 C7          1.5318    0.0071    2.4089 C.2       1 <0>         0.0000
      8 C8         -0.0992    1.1726    3.6206 C.3       1 <0>         0.0000
      9 C9         -0.4487    1.2283    2.1219 C.3       1 <0>         0.0000
     10 C10        -1.8433    1.3178   -1.5336 C.3       1 <0>         0.0000
     11 C11        -8.6658   -1.2685   -2.4240 C.3       1 <0>         0.0000
     12 C12        -7.5017   -2.5372   -0.5656 C.3       1 <0>         0.0000
     13 C13        -5.1962   -4.0439    2.6963 C.3       1 <0>         0.0000
     14 C14         0.5258   -0.0420    0.1473 C.3       1 <0>         0.0000
     15 C15        -3.1203   -4.6791   -0.2810 C.3       1 <0>         0.0000
     16 C16        -6.2445   -1.8205   -2.6971 C.3       1 <0>         0.0000
     17 C17        -3.4496   -4.6042    1.2081 C.3       1 <0>         0.0000
     18 C18        -7.3557   -1.5081   -1.6799 C.3       1 <0>         0.0000
     19 N1         -4.9204   -1.9906   -2.0868 N.am      1 <0>         0.0000
     20 N2         -3.3810   -3.4094   -0.9671 N.am      1 <0>         0.0000
     21 N3          1.2998    0.7421    3.5716 N.am      1 <0>         0.0000
     22 N4          0.4396    0.2098    1.5767 N.am      1 <0>         0.0000
     23 O1         -4.3954    0.1981   -2.5856 O.2       1 <0>         0.0000
     24 O2         -5.2971   -4.2499   -1.9054 O.2       1 <0>         0.0000
     25 O3          2.5148   -0.6828    2.1650 O.2       1 <0>         0.0000
     26 O4         -4.8111   -4.2431    1.3448 O.3       1 <0>         0.0000
     27 F1         -7.0077   -0.2813   -1.0484 F         1 <0>         0.0000
     28 S1         -1.0152   -2.3742   -0.0030 S.3       1 <0>         0.0000
     29 H1         -0.2074    2.1445    4.1081 H         1 <0>         0.0000
     30 H2         -0.7349    0.4409    4.1381 H         1 <0>         0.0000
     31 H3         -1.4976    0.9951    1.9217 H         1 <0>         0.0000
     32 H4         -0.2218    2.2179    1.6963 H         1 <0>         0.0000
     33 H5         -2.7451    1.7928   -1.1381 H         1 <0>         0.0000
     34 H6         -0.9717    1.8891   -1.2081 H         1 <0>         0.0000
     35 H7         -1.9191    1.3800   -2.6225 H         1 <0>         0.0000
     36 H8         -8.5462   -0.4802   -3.1731 H         1 <0>         0.0000
     37 H9         -9.4426   -0.9603   -1.7190 H         1 <0>         0.0000
     38 H10        -8.9975   -2.1830   -2.9255 H         1 <0>         0.0000
     39 H11        -6.5817   -2.6234    0.0164 H         1 <0>         0.0000
     40 H12        -7.7319   -3.5237   -0.9737 H         1 <0>         0.0000
     41 H13        -8.3083   -2.2263    0.1055 H         1 <0>         0.0000
     42 H14        -6.2485   -3.7528    2.6875 H         1 <0>         0.0000
     43 H15        -4.6041   -3.2449    3.1672 H         1 <0>         0.0000
     44 H16        -5.0813   -4.9650    3.2867 H         1 <0>         0.0000
     45 H17         1.3959   -0.6878    0.0013 H         1 <0>         0.0000
     46 H18         0.7207    0.8912   -0.3973 H         1 <0>         0.0000
     47 H19        -2.0694   -4.9531   -0.4195 H         1 <0>         0.0000
     48 H20        -3.7446   -5.4294   -0.7633 H         1 <0>         0.0000
     49 H21        -6.1660   -0.9888   -3.3963 H         1 <0>         0.0000
     50 H22        -6.4927   -2.7352   -3.2352 H         1 <0>         0.0000
     51 H23        -2.8072   -3.8703    1.7171 H         1 <0>         0.0000
     52 H24        -3.2527   -5.5902    1.6596 H         1 <0>         0.0000
     53 H25         1.7529    0.3884    4.4054 H         1 <0>         0.0000
@<TRIPOS>BOND
     1    1    2 1
     2    1    5 2
     3    1    4 1
     4    2    3 2
     5    2   10 1
     6    3   14 1
     7    3   28 1
     8    4   19 am
     9    4   23 2
    10    5   20 1
    11    5   28 1
    12    6   20 am
    13    6   19 am
    14    6   24 2
    15    7   21 am
    16    7   22 am
    17    7   25 2
    18    8    9 1
    19    8   21 1
    20    8   29 1
    21    8   30 1
    22    9   22 1
    23    9   31 1
    24    9   32 1
    25   10   33 1
    26   10   34 1
    27   10   35 1
    28   11   18 1
    29   11   36 1
    30   11   37 1
    31   11   38 1
    32   12   18 1
    33   12   39 1
    34   12   40 1
    35   12   41 1
    36   13   26 1
    37   13   42 1
    38   13   43 1
    39   13   44 1
    40   14   22 1
    41   14   45 1
    42   14   46 1
    43   15   17 1
    44   15   20 1
    45   15   47 1
    46   15   48 1
    47   16   18 1
    48   16   19 1
    49   16   49 1
    50   16   50 1
    51   17   26 1
    52   17   51 1
    53   17   52 1
    54   18   27 1
    55   21   53 1
