@<TRIPOS>MOLECULE
*****
   69    70     0     0     0
SMALL
NO_CHARGES

@<TRIPOS>ATOM
      1 C1         -1.6983    3.0734   -0.7837 C.ar      1 <0>         0.0000
      2 C2         -0.8109    3.5052    0.2186 C.ar      1 <0>         0.0000
      3 C3         -1.7349    1.7281   -1.1271 C.ar      1 <0>         0.0000
      4 C4          0.0181    2.6013    0.8778 C.ar      1 <0>         0.0000
      5 C5         -0.8949    0.8006   -0.4839 C.ar      1 <0>         0.0000
      6 C6         -0.0277    1.2434    0.5333 C.ar      1 <0>         0.0000
      7 C7         -0.8785   -0.6154   -0.9023 C.2       1 <0>         0.0000
      8 C8          0.2756   -1.4582   -0.3181 C.3       1 <0>         0.0000
      9 C9          0.4698   -1.0289    1.1775 C.3       1 <0>         0.0000
     10 C10        -0.8037   -1.2322    2.0166 C.3       1 <0>         0.0000
     11 C11         6.4021   -2.6595    4.1099 C.3       1 <0>         0.0000
     12 C12         5.8162   -0.7364    0.9557 C.3       1 <0>         0.0000
     13 C13         3.9901   -0.3369   -3.1656 C.3       1 <0>         0.0000
     14 C14         2.2648   -6.4289    0.1182 C.3       1 <0>         0.0000
     15 C15         1.5249   -1.0697   -1.1627 C.3       1 <0>         0.0000
     16 C16        -0.0591   -2.9630   -0.4571 C.3       1 <0>         0.0000
     17 C17         1.6609   -1.7294    1.8383 C.3       1 <0>         0.0000
     18 C18         2.1108   -1.1627    3.1886 C.3       1 <0>         0.0000
     19 C19         5.4480   -2.9695    2.9427 C.3       1 <0>         0.0000
     20 C20         4.9569   -0.6604    2.2203 C.3       1 <0>         0.0000
     21 C21         3.3974   -1.8562    3.6728 C.3       1 <0>         0.0000
     22 C22         1.3389   -1.2868   -2.6688 C.3       1 <0>         0.0000
     23 C23         1.1532   -3.9083   -0.5278 C.3       1 <0>         0.0000
     24 N1          4.4280   -1.9616    2.6347 N.3       1 <0>         0.0000
     25 O1         -1.6612   -1.0644   -1.7321 O.2       1 <0>         0.0000
     26 O2          3.4522   -2.9033   -2.7300 O.2       1 <0>         0.0000
     27 O3          2.6694   -1.8418   -4.9206 O.2       1 <0>         0.0000
     28 O4          0.5843   -5.1539    1.7451 O.2       1 <0>         0.0000
     29 O5         -0.3328   -6.1472   -0.4200 O.2       1 <0>         0.0000
     30 O6          0.8032    0.3999    1.1987 O.3       1 <0>         0.0000
     31 S1          2.9017   -1.7488   -3.4715 S.o2      1 <0>         0.0000
     32 S2          0.7489   -5.4648    0.3087 S.o2      1 <0>         0.0000
     33 H1         -2.3457    3.7871   -1.2845 H         1 <0>         0.0000
     34 H2         -0.7756    4.5565    0.4930 H         1 <0>         0.0000
     35 H3         -2.3990    1.3584   -1.9028 H         1 <0>         0.0000
     36 H4          0.6942    2.9198    1.6658 H         1 <0>         0.0000
     37 H5         -0.6976   -0.6897    2.9585 H         1 <0>         0.0000
     38 H6         -0.9446   -2.2889    2.2525 H         1 <0>         0.0000
     39 H7         -1.7067   -0.8687    1.5204 H         1 <0>         0.0000
     40 H8          7.0014   -1.7633    3.9188 H         1 <0>         0.0000
     41 H9          5.8590   -2.5082    5.0482 H         1 <0>         0.0000
     42 H10         7.0956   -3.4948    4.2571 H         1 <0>         0.0000
     43 H11         6.7717   -1.2408    1.1274 H         1 <0>         0.0000
     44 H12         5.2860   -1.2802    0.1656 H         1 <0>         0.0000
     45 H13         6.0410    0.2733    0.5954 H         1 <0>         0.0000
     46 H14         4.9357   -0.5803   -3.6537 H         1 <0>         0.0000
     47 H15         3.5497    0.5546   -3.6152 H         1 <0>         0.0000
     48 H16         4.1398   -0.2158   -2.0922 H         1 <0>         0.0000
     49 H17         2.0816   -7.3816    0.6184 H         1 <0>         0.0000
     50 H18         2.4547   -6.5853   -0.9447 H         1 <0>         0.0000
     51 H19         3.0878   -5.8968    0.5976 H         1 <0>         0.0000
     52 H20         2.3693   -1.6699   -0.8256 H         1 <0>         0.0000
     53 H21         1.7885   -0.0282   -0.9709 H         1 <0>         0.0000
     54 H22        -0.6722   -3.1046   -1.3468 H         1 <0>         0.0000
     55 H23        -0.7001   -3.2470    0.3790 H         1 <0>         0.0000
     56 H24         1.4046   -2.7846    1.9693 H         1 <0>         0.0000
     57 H25         2.5267   -1.6925    1.1777 H         1 <0>         0.0000
     58 H26         2.2567   -0.0825    3.1109 H         1 <0>         0.0000
     59 H27         1.3455   -1.3164    3.9570 H         1 <0>         0.0000
     60 H28         4.9184   -3.9063    3.1508 H         1 <0>         0.0000
     61 H29         6.0352   -3.1508    2.0368 H         1 <0>         0.0000
     62 H30         4.1016   -0.0115    2.0102 H         1 <0>         0.0000
     63 H31         5.5249   -0.1620    3.0275 H         1 <0>         0.0000
     64 H32         3.1467   -2.8783    3.9786 H         1 <0>         0.0000
     65 H33         3.7588   -1.3327    4.5767 H         1 <0>         0.0000
     66 H34         0.6821   -2.1265   -2.9074 H         1 <0>         0.0000
     67 H35         0.9527   -0.4107   -3.1946 H         1 <0>         0.0000
     68 H36         1.4462   -4.1505   -1.5510 H         1 <0>         0.0000
     69 H37         2.0339   -3.5406   -0.0047 H         1 <0>         0.0000
@<TRIPOS>BOND
     1    1    2 ar
     2    1    3 ar
     3    1   33 1
     4    2    4 ar
     5    2   34 1
     6    3    5 ar
     7    3   35 1
     8    4    6 ar
     9    4   36 1
    10    5    6 ar
    11    5    7 1
    12    6   30 1
    13    7    8 1
    14    7   25 2
    15    8    9 1
    16    8   15 1
    17    8   16 1
    18    9   10 1
    19    9   17 1
    20    9   30 1
    21   10   37 1
    22   10   38 1
    23   10   39 1
    24   11   19 1
    25   11   40 1
    26   11   41 1
    27   11   42 1
    28   12   20 1
    29   12   43 1
    30   12   44 1
    31   12   45 1
    32   13   31 1
    33   13   46 1
    34   13   47 1
    35   13   48 1
    36   14   32 1
    37   14   49 1
    38   14   50 1
    39   14   51 1
    40   15   22 1
    41   15   52 1
    42   15   53 1
    43   16   23 1
    44   16   54 1
    45   16   55 1
    46   17   18 1
    47   17   56 1
    48   17   57 1
    49   18   21 1
    50   18   58 1
    51   18   59 1
    52   19   24 1
    53   19   60 1
    54   19   61 1
    55   20   24 1
    56   20   62 1
    57   20   63 1
    58   21   24 1
    59   21   64 1
    60   21   65 1
    61   22   31 1
    62   22   66 1
    63   22   67 1
    64   23   32 1
    65   23   68 1
    66   23   69 1
    67   26   31 2
    68   27   31 2
    69   28   32 2
    70   29   32 2
