@<TRIPOS>MOLECULE
*****
   67    70     0     0     0
SMALL
NO_CHARGES

@<TRIPOS>ATOM
      1 C1          8.2298   -5.5580    1.9170 C.ar      1 <0>         0.0000
      2 C2          7.0495   -4.8145    1.9315 C.ar      1 <0>         0.0000
      3 C3          4.6087   -3.1921   -0.3597 C.ar      1 <0>         0.0000
      4 C4          4.9661   -2.6255    1.9552 C.ar      1 <0>         0.0000
      5 C5          3.4350   -2.4401   -0.3605 C.ar      1 <0>         0.0000
      6 C6          3.7908   -1.8833    1.9590 C.ar      1 <0>         0.0000
      7 C7          9.0461   -5.5729    0.7844 C.ar      1 <0>         0.0000
      8 C8          7.4626   -4.1255   -0.3528 C.ar      1 <0>         0.0000
      9 C9          2.1201    0.2939   -1.3191 C.ar      1 <0>         0.0000
     10 C10        -0.5673    0.0613   -1.9995 C.ar      1 <0>         0.0000
     11 C11         5.4002   -3.2966    0.7955 C.ar      1 <0>         0.0000
     12 C12         6.6562   -4.0842    0.7957 C.ar      1 <0>         0.0000
     13 C13         3.0061   -1.7703    0.7976 C.ar      1 <0>         0.0000
     14 C14         1.2476   -0.4118   -0.4790 C.ar      1 <0>         0.0000
     15 C15        -0.1083   -0.5417   -0.8271 C.ar      1 <0>         0.0000
     16 C16         8.6563   -4.8570   -0.3569 C.ar      1 <0>         0.0000
     17 C17         1.6566    0.8973   -2.4864 C.ar      1 <0>         0.0000
     18 C18         0.2922    0.7926   -2.8238 C.ar      1 <0>         0.0000
     19 C19         1.7479   -0.9827    0.7973 C.2       1 <0>         0.0000
     20 C20        -0.1671    0.8240    3.0386 C.2       1 <0>         0.0000
     21 C21        -1.0134   -1.3351    0.0765 C.3       1 <0>         0.0000
     22 C22        -1.2672   -0.6431    1.4237 C.3       1 <0>         0.0000
     23 C23        -1.8942   -1.6134    2.4319 C.3       1 <0>         0.0000
     24 C24         0.9036    1.7931    5.0085 C.3       1 <0>         0.0000
     25 C25         2.8509    0.9894   -4.5275 C.3       1 <0>         0.0000
     26 C26        -0.2042    2.7919   -4.0010 C.3       1 <0>         0.0000
     27 C27        10.6654   -2.4293   -1.0576 C.3       1 <0>         0.0000
     28 N1          1.1646   -0.8147    1.9442 N.2       1 <0>         0.0000
     29 N2         -0.0149   -0.0339    1.9371 N.am      1 <0>         0.0000
     30 N3          9.4762   -4.9036   -1.5210 N.pl3     1 <0>         0.0000
     31 N4          0.9774    1.0514    3.7588 N.am      1 <0>         0.0000
     32 O1         -1.2439    1.3768    3.2784 O.2       1 <0>         0.0000
     33 O2         11.0307   -3.9382   -3.2265 O.2       1 <0>         0.0000
     34 O3          8.7584   -2.8284   -2.8396 O.2       1 <0>         0.0000
     35 O4          2.5415    1.6114   -3.2681 O.3       1 <0>         0.0000
     36 O5         -0.2141    1.3519   -3.9750 O.3       1 <0>         0.0000
     37 S1          9.9585   -3.4934   -2.3365 S.o2      1 <0>         0.0000
     38 H1          8.5205   -6.1294    2.7943 H         1 <0>         0.0000
     39 H2          6.4158   -4.8280    2.8129 H         1 <0>         0.0000
     40 H3          4.8977   -3.7241   -1.2613 H         1 <0>         0.0000
     41 H4          5.5734   -2.6630    2.8554 H         1 <0>         0.0000
     42 H5          2.8369   -2.3883   -1.2646 H         1 <0>         0.0000
     43 H6          3.4723   -1.3729    2.8616 H         1 <0>         0.0000
     44 H7          9.9751   -6.1391    0.7834 H         1 <0>         0.0000
     45 H8          7.1822   -3.5718   -1.2413 H         1 <0>         0.0000
     46 H9          3.1733    0.3937   -1.0745 H         1 <0>         0.0000
     47 H10        -1.6109   -0.0166   -2.2930 H         1 <0>         0.0000
     48 H11        -1.9806   -1.5123   -0.4021 H         1 <0>         0.0000
     49 H12        -0.5691   -2.3207    0.2614 H         1 <0>         0.0000
     50 H13        -1.9388    0.2032    1.2698 H         1 <0>         0.0000
     51 H14        -1.1992   -2.4273    2.6643 H         1 <0>         0.0000
     52 H15        -2.8094   -2.0514    2.0178 H         1 <0>         0.0000
     53 H16        -2.1535   -1.0904    3.3546 H         1 <0>         0.0000
     54 H17         1.9151    2.0764    5.3112 H         1 <0>         0.0000
     55 H18         0.4356    1.2138    5.8156 H         1 <0>         0.0000
     56 H19         0.3128    2.6972    4.8546 H         1 <0>         0.0000
     57 H20         3.5561    1.6543   -5.0296 H         1 <0>         0.0000
     58 H21         1.9518    0.8674   -5.1396 H         1 <0>         0.0000
     59 H22         3.3225    0.0129   -4.3635 H         1 <0>         0.0000
     60 H23        -0.6467    3.0778   -4.9569 H         1 <0>         0.0000
     61 H24         0.8143    3.1828   -3.9264 H         1 <0>         0.0000
     62 H25        -0.8139    3.1879   -3.1804 H         1 <0>         0.0000
     63 H26        10.9352   -1.4919   -1.5471 H         1 <0>         0.0000
     64 H27         9.9106   -2.2555   -0.2898 H         1 <0>         0.0000
     65 H28        11.5494   -2.9184   -0.6467 H         1 <0>         0.0000
     66 H29        10.2600   -5.5502   -1.4700 H         1 <0>         0.0000
     67 H30         1.7122    0.3658    3.6346 H         1 <0>         0.0000
@<TRIPOS>BOND
     1    1    2 ar
     2    1    7 ar
     3    1   38 1
     4    2   12 ar
     5    2   39 1
     6    3    5 ar
     7    3   11 ar
     8    3   40 1
     9    4    6 ar
    10    4   11 ar
    11    4   41 1
    12    5   13 ar
    13    5   42 1
    14    6   13 ar
    15    6   43 1
    16    7   16 ar
    17    7   44 1
    18    8   12 ar
    19    8   16 ar
    20    8   45 1
    21    9   14 ar
    22    9   17 ar
    23    9   46 1
    24   10   15 ar
    25   10   18 ar
    26   10   47 1
    27   11   12 1
    28   13   19 1
    29   14   15 ar
    30   14   19 1
    31   15   21 1
    32   16   30 1
    33   17   18 ar
    34   17   35 1
    35   18   36 1
    36   19   28 2
    37   20   29 am
    38   20   31 am
    39   20   32 2
    40   21   22 1
    41   21   48 1
    42   21   49 1
    43   22   23 1
    44   22   29 1
    45   22   50 1
    46   23   51 1
    47   23   52 1
    48   23   53 1
    49   24   31 1
    50   24   54 1
    51   24   55 1
    52   24   56 1
    53   25   35 1
    54   25   57 1
    55   25   58 1
    56   25   59 1
    57   26   36 1
    58   26   60 1
    59   26   61 1
    60   26   62 1
    61   27   37 1
    62   27   63 1
    63   27   64 1
    64   27   65 1
    65   28   29 1
    66   30   37 1
    67   30   66 1
    68   31   67 1
    69   33   37 2
    70   34   37 2
