@<TRIPOS>MOLECULE
*****
   62    64     0     0     0
SMALL
NO_CHARGES

@<TRIPOS>ATOM
      1 C1          3.9025    6.0958   -0.7361 C.ar      1 <0>         0.0000
      2 C2          5.5482    4.3548   -0.3814 C.ar      1 <0>         0.0000
      3 C3          3.7219    5.6429   -2.0492 C.ar      1 <0>         0.0000
      4 C4          5.3787    3.9143   -1.6905 C.ar      1 <0>         0.0000
      5 C5          4.8142    5.4494    0.1111 C.ar      1 <0>         0.0000
      6 C6          4.4507    4.5540   -2.5209 C.ar      1 <0>         0.0000
      7 C7          2.5500    1.7853   -1.4378 C.3       1 <0>         0.0000
      8 C8          1.0850    1.7077   -1.8737 C.3       1 <0>         0.0000
      9 C9          2.7336    1.3834    0.0192 C.3       1 <0>         0.0000
     10 C10         0.3834    2.0858    0.4971 C.3       1 <0>         0.0000
     11 C11         3.1946    2.7485    4.4487 C.3       1 <0>         0.0000
     12 C12         3.2385    2.6568    2.9233 C.3       1 <0>         0.0000
     13 C13         0.1556    2.5294   -0.9555 C.3       1 <0>         0.0000
     14 C14         2.6786    5.0230    3.2048 C.3       1 <0>         0.0000
     15 C15         0.4162    4.0424   -1.0991 C.3       1 <0>         0.0000
     16 C16        -1.3150    2.2349   -1.2966 C.3       1 <0>         0.0000
     17 C17         1.4277    5.5637    2.5044 C.3       1 <0>         0.0000
     18 C18         3.2134    7.2622    4.2896 C.3       1 <0>         0.0000
     19 C19         4.9967    5.4984    4.1963 C.3       1 <0>         0.0000
     20 C20         2.0249    1.8841    2.3779 C.3       1 <0>         0.0000
     21 C21         4.2839    6.7173    2.1289 C.3       1 <0>         0.0000
     22 C22         3.7884    6.0980    3.4567 C.3       1 <0>         0.0000
     23 N1          1.8304    2.1996    0.9199 N.4       1 <0>         0.0000
     24 O1          3.2293    3.9705    2.3670 O.3       1 <0>         0.0000
     25 O2          5.1054    5.8087    1.3910 O.3       1 <0>         0.0000
     26 S1          2.1205    4.1818    4.7797 S.3       1 <0>         0.0000
     27 Cl1         4.1874    3.9629   -4.1516 Cl        1 <0>         0.0000
     28 H1          3.3531    6.9746   -0.4190 H         1 <0>         0.0000
     29 H2          6.2736    3.8814    0.2737 H         1 <0>         0.0000
     30 H3          3.0207    6.1516   -2.7034 H         1 <0>         0.0000
     31 H4          5.9601    3.0783   -2.0674 H         1 <0>         0.0000
     32 H5          3.1697    1.1216   -2.0480 H         1 <0>         0.0000
     33 H6          2.9478    2.7896   -1.5865 H         1 <0>         0.0000
     34 H7          0.9908    2.0653   -2.9033 H         1 <0>         0.0000
     35 H8          0.7548    0.6610   -1.8716 H         1 <0>         0.0000
     36 H9          2.4655    0.3371    0.1916 H         1 <0>         0.0000
     37 H10         3.7581    1.5506    0.3555 H         1 <0>         0.0000
     38 H11        -0.1969    2.6975    1.1922 H         1 <0>         0.0000
     39 H12         0.1045    1.0380    0.6427 H         1 <0>         0.0000
     40 H13         2.7508    1.8586    4.9029 H         1 <0>         0.0000
     41 H14         4.1936    2.8943    4.8599 H         1 <0>         0.0000
     42 H15         4.1722    2.1910    2.5931 H         1 <0>         0.0000
     43 H16        -0.2490    4.6166   -0.4452 H         1 <0>         0.0000
     44 H17         0.2222    4.3577   -2.1283 H         1 <0>         0.0000
     45 H18         1.4462    4.3361   -0.8742 H         1 <0>         0.0000
     46 H19        -1.9982    2.7965   -0.6505 H         1 <0>         0.0000
     47 H20        -1.5463    1.1693   -1.1954 H         1 <0>         0.0000
     48 H21        -1.5243    2.5240   -2.3306 H         1 <0>         0.0000
     49 H22         0.7054    4.7567    2.3614 H         1 <0>         0.0000
     50 H23         1.6753    5.9823    1.5261 H         1 <0>         0.0000
     51 H24         0.9360    6.3364    3.0981 H         1 <0>         0.0000
     52 H25         4.0201    7.9391    4.5838 H         1 <0>         0.0000
     53 H26         2.4768    7.8524    3.7361 H         1 <0>         0.0000
     54 H27         2.7433    6.8968    5.2065 H         1 <0>         0.0000
     55 H28         5.7855    6.2516    4.2796 H         1 <0>         0.0000
     56 H29         5.4175    4.6492    3.6552 H         1 <0>         0.0000
     57 H30         4.7245    5.1936    5.2096 H         1 <0>         0.0000
     58 H31         1.1252    2.2056    2.9054 H         1 <0>         0.0000
     59 H32         2.1404    0.8038    2.4866 H         1 <0>         0.0000
     60 H33         4.9097    7.5826    2.3700 H         1 <0>         0.0000
     61 H34         3.4469    7.0805    1.5339 H         1 <0>         0.0000
     62 H35         2.1223    3.1872    0.8360 H         1 <0>         0.0000
@<TRIPOS>BOND
     1    1    3 ar
     2    1    5 ar
     3    1   28 1
     4    2    4 ar
     5    2    5 ar
     6    2   29 1
     7    3    6 ar
     8    3   30 1
     9    4    6 ar
    10    4   31 1
    11    5   25 1
    12    6   27 1
    13    7    8 1
    14    7    9 1
    15    7   32 1
    16    7   33 1
    17    8   13 1
    18    8   34 1
    19    8   35 1
    20    9   23 1
    21    9   36 1
    22    9   37 1
    23   10   13 1
    24   10   23 1
    25   10   38 1
    26   10   39 1
    27   11   12 1
    28   11   26 1
    29   11   40 1
    30   11   41 1
    31   12   20 1
    32   12   24 1
    33   12   42 1
    34   13   15 1
    35   13   16 1
    36   14   17 1
    37   14   22 1
    38   14   24 1
    39   14   26 1
    40   15   43 1
    41   15   44 1
    42   15   45 1
    43   16   46 1
    44   16   47 1
    45   16   48 1
    46   17   49 1
    47   17   50 1
    48   17   51 1
    49   18   22 1
    50   18   52 1
    51   18   53 1
    52   18   54 1
    53   19   22 1
    54   19   55 1
    55   19   56 1
    56   19   57 1
    57   20   23 1
    58   20   58 1
    59   20   59 1
    60   21   22 1
    61   21   25 1
    62   21   60 1
    63   21   61 1
    64   23   62 1
