@<TRIPOS>MOLECULE
*****
   23    24     0     0     0
SMALL
NO_CHARGES

@<TRIPOS>ATOM
      1 C1          1.9783   -1.0629   -0.1415 C.ar      1 <0>         0.0000
      2 C2          1.0028   -0.2860    0.4916 C.ar      1 <0>         0.0000
      3 C3          2.8392   -1.8420    0.6396 C.ar      1 <0>         0.0000
      4 C4          0.6937    2.1048    5.6501 C.ar      1 <0>         0.0000
      5 C5          0.4187    1.6134    6.9327 C.ar      1 <0>         0.0000
      6 C6          0.8826   -0.2797    1.8831 C.ar      1 <0>         0.0000
      7 C7          2.7413   -1.8264    2.0311 C.ar      1 <0>         0.0000
      8 C8          1.1136    1.2335    4.6511 C.ar      1 <0>         0.0000
      9 C9          0.6040    0.2474    7.1506 C.ar      1 <0>         0.0000
     10 C10         1.7635   -1.0425    2.6705 C.ar      1 <0>         0.0000
     11 C11         1.2396   -0.1360    4.9707 C.ar      1 <0>         0.0000
     12 N1          0.9990   -0.6143    6.2058 N.ar      1 <0>         0.0000
     13 N2          1.6747   -1.0972    4.0714 N.pl3     1 <0>         0.0000
     14 H1          2.0621   -1.0668   -1.2245 H         1 <0>         0.0000
     15 H2          0.3120    0.3079   -0.1017 H         1 <0>         0.0000
     16 H3          3.6009   -2.4555    0.1652 H         1 <0>         0.0000
     17 H4          0.5942    3.1651    5.4312 H         1 <0>         0.0000
     18 H5          0.0874    2.2637    7.7361 H         1 <0>         0.0000
     19 H6          0.0867    0.2879    2.3528 H         1 <0>         0.0000
     20 H7          3.4284   -2.4151    2.6347 H         1 <0>         0.0000
     21 H8          1.3706    1.6008    3.6648 H         1 <0>         0.0000
     22 H9          0.4262   -0.1832    8.1353 H         1 <0>         0.0000
     23 H10         1.8944   -1.9799    4.5176 H         1 <0>         0.0000
@<TRIPOS>BOND
     1    1    3 ar
     2    1    2 ar
     3    1   14 1
     4    2    6 ar
     5    2   15 1
     6    3    7 ar
     7    3   16 1
     8    4    5 ar
     9    4    8 ar
    10    4   17 1
    11    5    9 ar
    12    5   18 1
    13    6   10 ar
    14    6   19 1
    15    7   10 ar
    16    7   20 1
    17    8   11 ar
    18    8   21 1
    19    9   12 ar
    20    9   22 1
    21   10   13 1
    22   11   12 ar
    23   11   13 1
    24   13   23 1
