@<TRIPOS>MOLECULE
*****
   42    44     0     0     0
SMALL
NO_CHARGES

@<TRIPOS>ATOM
      1 C1        -10.4290    0.9213   -1.0456 C.ar      1 <0>         0.0000
      2 C2         -9.7923   -0.0579   -0.2756 C.ar      1 <0>         0.0000
      3 C3         -9.7202    1.5589   -2.0694 C.ar      1 <0>         0.0000
      4 C4         -8.4607   -0.3952   -0.5271 C.ar      1 <0>         0.0000
      5 C5         -8.3885    1.2206   -2.3194 C.ar      1 <0>         0.0000
      6 C6         -5.8194   -0.1840   -3.1298 C.ar      1 <0>         0.0000
      7 C7         -5.4330   -0.4072   -0.7722 C.ar      1 <0>         0.0000
      8 C8         -4.4907   -0.5234   -3.3744 C.ar      1 <0>         0.0000
      9 C9         -4.1000   -0.7437   -1.0234 C.ar      1 <0>         0.0000
     10 C10        -7.7364    0.2385   -1.5526 C.ar      1 <0>         0.0000
     11 C11        -6.3223   -0.1195   -1.8181 C.ar      1 <0>         0.0000
     12 C12        -3.5952   -0.8138   -2.3289 C.ar      1 <0>         0.0000
     13 C13        -0.4052    1.6925   -1.7658 C.2       1 <0>         0.0000
     14 C14        -2.2987   -3.5786   -2.6124 C.3       1 <0>         0.0000
     15 C15        -1.7238   -3.1211   -1.2409 C.3       1 <0>         0.0000
     16 C16        -2.0554   -2.3946   -3.5682 C.3       1 <0>         0.0000
     17 C17        -1.3205   -1.6403   -1.4360 C.3       1 <0>         0.0000
     18 C18        -2.1341   -1.1459   -2.6535 C.3       1 <0>         0.0000
     19 C19        -1.4728    0.0784   -3.3203 C.3       1 <0>         0.0000
     20 N1         -1.4876    1.2670   -2.4758 N.am      1 <0>         0.0000
     21 O1          0.7160    1.1985   -1.8105 O.2       1 <0>         0.0000
     22 H1        -11.4654    1.1839   -0.8506 H         1 <0>         0.0000
     23 H2        -10.3365   -0.5670    0.5159 H         1 <0>         0.0000
     24 H3        -10.2022    2.3275   -2.6682 H         1 <0>         0.0000
     25 H4         -7.9857   -1.1773    0.0591 H         1 <0>         0.0000
     26 H5         -7.8407    1.7421   -3.0998 H         1 <0>         0.0000
     27 H6         -6.4836    0.0056   -3.9689 H         1 <0>         0.0000
     28 H7         -5.7772   -0.3412    0.2566 H         1 <0>         0.0000
     29 H8         -4.1503   -0.5725   -4.4057 H         1 <0>         0.0000
     30 H9         -3.4531   -0.9467   -0.1771 H         1 <0>         0.0000
     31 H10        -0.6433    2.5690   -1.1328 H         1 <0>         0.0000
     32 H11        -1.8343   -4.4991   -2.9777 H         1 <0>         0.0000
     33 H12        -3.3728   -3.7703   -2.5286 H         1 <0>         0.0000
     34 H13        -2.4772   -3.2295   -0.4552 H         1 <0>         0.0000
     35 H14        -0.8616   -3.7219   -0.9372 H         1 <0>         0.0000
     36 H15        -1.0460   -2.4513   -3.9947 H         1 <0>         0.0000
     37 H16        -2.7617   -2.3707   -4.4023 H         1 <0>         0.0000
     38 H17        -1.4482   -1.0301   -0.5394 H         1 <0>         0.0000
     39 H18        -0.2599   -1.5704   -1.6950 H         1 <0>         0.0000
     40 H19        -1.9731    0.3157   -4.2650 H         1 <0>         0.0000
     41 H20        -0.4262   -0.1402   -3.5400 H         1 <0>         0.0000
     42 H21        -2.3832    1.6940   -2.2720 H         1 <0>         0.0000
@<TRIPOS>BOND
     1    1    3 ar
     2    1    2 ar
     3    1   22 1
     4    2    4 ar
     5    2   23 1
     6    3    5 ar
     7    3   24 1
     8    4   10 ar
     9    4   25 1
    10    5   10 ar
    11    5   26 1
    12    6    8 ar
    13    6   11 ar
    14    6   27 1
    15    7    9 ar
    16    7   11 ar
    17    7   28 1
    18    8   12 ar
    19    8   29 1
    20    9   12 ar
    21    9   30 1
    22   10   11 1
    23   12   18 1
    24   13   20 am
    25   13   21 2
    26   13   31 1
    27   14   15 1
    28   14   16 1
    29   14   32 1
    30   14   33 1
    31   15   17 1
    32   15   34 1
    33   15   35 1
    34   16   18 1
    35   16   36 1
    36   16   37 1
    37   17   18 1
    38   17   38 1
    39   17   39 1
    40   18   19 1
    41   19   20 1
    42   19   40 1
    43   19   41 1
    44   20   42 1
