@<TRIPOS>MOLECULE
*****
   35    36     0     0     0
SMALL
NO_CHARGES

@<TRIPOS>ATOM
      1 C1          4.4129   -4.6222   -1.7770 C.2       1 <0>         0.0000
      2 C2          5.0362   -3.5656   -2.4556 C.2       1 <0>         0.0000
      3 C3          1.5464   -1.8089   -0.6995 C.2       1 <0>         0.0000
      4 C4          0.6696    1.3737    0.8709 C.3       1 <0>         0.0000
      5 C5          1.1153   -0.0676    1.0981 C.3       1 <0>         0.0000
      6 C6         -0.7209   -0.8875   -0.3509 C.3       1 <0>         0.0000
      7 C7         -1.2006    0.5495   -0.6049 C.3       1 <0>         0.0000
      8 C8         -0.8355    1.4957    0.5676 C.3       1 <0>         0.0000
      9 C9         -2.6937    0.5539   -0.9497 C.3       1 <0>         0.0000
     10 C10        -1.6721    1.2590    1.8326 C.3       1 <0>         0.0000
     11 C11         2.9828   -1.8638   -0.2435 C.3       1 <0>         0.0000
     12 N1          3.5664   -4.1377   -0.8640 N.2       1 <0>         0.0000
     13 N2          4.5914   -2.3983   -1.9820 N.2       1 <0>         0.0000
     14 N3          3.7264   -2.8168   -1.0444 N.pl3     1 <0>         0.0000
     15 N4          0.7052   -0.9280   -0.0172 N.am      1 <0>         0.0000
     16 O1          1.1855   -2.5263   -1.6362 O.2       1 <0>         0.0000
     17 O2         -1.0846    2.8412    0.1413 O.3       1 <0>         0.0000
     18 H1          4.5276   -5.6891   -1.8963 H         1 <0>         0.0000
     19 H2          5.7688   -3.5840   -3.2484 H         1 <0>         0.0000
     20 H3          0.9310    1.9857    1.7435 H         1 <0>         0.0000
     21 H4          1.2453    1.8007    0.0379 H         1 <0>         0.0000
     22 H5          2.1962   -0.0848    1.2489 H         1 <0>         0.0000
     23 H6          0.6622   -0.4788    2.0071 H         1 <0>         0.0000
     24 H7         -1.2615   -1.3447    0.4861 H         1 <0>         0.0000
     25 H8         -0.9215   -1.5057   -1.2326 H         1 <0>         0.0000
     26 H9         -0.6844    0.9245   -1.5014 H         1 <0>         0.0000
     27 H10        -3.2643    0.1913   -0.0987 H         1 <0>         0.0000
     28 H11        -2.8709   -0.0927   -1.8052 H         1 <0>         0.0000
     29 H12        -3.0081    1.5660   -1.1905 H         1 <0>         0.0000
     30 H13        -2.7270    1.3508    1.5906 H         1 <0>         0.0000
     31 H14        -1.4070    1.9968    2.5844 H         1 <0>         0.0000
     32 H15        -1.4732    0.2624    2.2161 H         1 <0>         0.0000
     33 H16         3.0077   -2.1688    0.8000 H         1 <0>         0.0000
     34 H17         3.4235   -0.8756   -0.3530 H         1 <0>         0.0000
     35 H18        -0.8166    3.4095    0.8770 H         1 <0>         0.0000
@<TRIPOS>BOND
     1    1    2 1
     2    1   12 2
     3    1   18 1
     4    2   13 2
     5    2   19 1
     6    3   11 1
     7    3   15 am
     8    3   16 2
     9    4    5 1
    10    4    8 1
    11    4   20 1
    12    4   21 1
    13    5   15 1
    14    5   22 1
    15    5   23 1
    16    6    7 1
    17    6   15 1
    18    6   24 1
    19    6   25 1
    20    7    8 1
    21    7    9 1
    22    7   26 1
    23    8   10 1
    24    8   17 1
    25    9   27 1
    26    9   28 1
    27    9   29 1
    28   10   30 1
    29   10   31 1
    30   10   32 1
    31   11   14 1
    32   11   33 1
    33   11   34 1
    34   12   14 1
    35   13   14 1
    36   17   35 1
