@<TRIPOS>MOLECULE
*****
   22    21     0     0     0
SMALL
NO_CHARGES

@<TRIPOS>ATOM
      1 C1          1.7110   -0.4527   -1.6223 C.2       1 <0>         0.0000
      2 C2          0.7061   -0.3590   -0.7425 C.2       1 <0>         0.0000
      3 C3         -0.7362   -1.9455   -1.8039 C.3       1 <0>         0.0000
      4 C4         -0.9217    0.4992   -2.2745 C.3       1 <0>         0.0000
      5 C5         -1.5996   -0.3978   -0.0515 C.3       1 <0>         0.0000
      6 C6          1.5097   -0.7464   -3.0732 C.3       1 <0>         0.0000
      7 N1         -0.6388   -0.5507   -1.2167 N.4       1 <0>         0.0000
      8 O1          2.2011   -1.9446   -3.3970 O.3       1 <0>         0.0000
      9 H1          2.7369   -0.3036   -1.2923 H         1 <0>         0.0000
     10 H2          0.8741   -0.1449    0.3066 H         1 <0>         0.0000
     11 H3         -1.7576   -2.0864   -2.1622 H         1 <0>         0.0000
     12 H4         -0.0194   -2.0134   -2.6244 H         1 <0>         0.0000
     13 H5         -0.4960   -2.6585   -1.0128 H         1 <0>         0.0000
     14 H6         -1.9427    0.3484   -2.6300 H         1 <0>         0.0000
     15 H7         -0.8085    1.4806   -1.8100 H         1 <0>         0.0000
     16 H8         -0.2006    0.3619   -3.0826 H         1 <0>         0.0000
     17 H9         -2.6119   -0.5465   -0.4316 H         1 <0>         0.0000
     18 H10        -1.3447   -1.1542    0.6932 H         1 <0>         0.0000
     19 H11        -1.4764    0.6086    0.3532 H         1 <0>         0.0000
     20 H12         0.4524   -0.8742   -3.3270 H         1 <0>         0.0000
     21 H13         1.9212    0.0686   -3.6768 H         1 <0>         0.0000
     22 H14         2.0517   -2.1080   -4.3425 H         1 <0>         0.0000
@<TRIPOS>BOND
     1    1    2 2
     2    1    6 1
     3    1    9 1
     4    2    7 1
     5    2   10 1
     6    3    7 1
     7    3   11 1
     8    3   12 1
     9    3   13 1
    10    4    7 1
    11    4   14 1
    12    4   15 1
    13    4   16 1
    14    5    7 1
    15    5   17 1
    16    5   18 1
    17    5   19 1
    18    6    8 1
    19    6   20 1
    20    6   21 1
    21    8   22 1
