@<TRIPOS>MOLECULE
*****
   43    44     0     0     0
SMALL
NO_CHARGES

@<TRIPOS>ATOM
      1 C1          5.4373    0.0294    5.8793 C.ar      1 <0>         0.0000
      2 C2          5.3205    0.7521    4.6775 C.ar      1 <0>         0.0000
      3 C3          3.5911   -1.3767    5.1995 C.ar      1 <0>         0.0000
      4 C4          4.5695   -1.0277    6.1552 C.ar      1 <0>         0.0000
      5 C5          4.3491    0.4188    3.7371 C.ar      1 <0>         0.0000
      6 C6          3.4656   -0.6736    4.0015 C.ar      1 <0>         0.0000
      7 C7         -0.3719   -0.4065    3.2927 C.3       1 <0>         0.0000
      8 C8         -0.1265   -0.8514    1.8209 C.3       1 <0>         0.0000
      9 C9          0.4419   -1.3835    4.1755 C.3       1 <0>         0.0000
     10 C10         0.8137   -2.0760    1.9025 C.3       1 <0>         0.0000
     11 C11         1.5313   -1.9263    3.2422 C.3       1 <0>         0.0000
     12 C12         3.3832   -2.1531    8.1318 C.3       1 <0>         0.0000
     13 C13         4.9768    2.1736    2.2446 C.3       1 <0>         0.0000
     14 C14         5.4266   -3.1797    7.0915 C.3       1 <0>         0.0000
     15 C15         4.7128   -1.8588    7.4326 C.3       1 <0>         0.0000
     16 N1          6.7997   -2.8109    6.5760 N.4       1 <0>         0.0000
     17 O1          5.6414   -1.2581    8.3546 O.3       1 <0>         0.0000
     18 O2          2.5720   -0.9354    3.0296 O.3       1 <0>         0.0000
     19 O3          4.1486    1.0505    2.5601 O.3       1 <0>         0.0000
     20 H1          6.1863    0.3354    6.6030 H         1 <0>         0.0000
     21 H2          5.9924    1.5832    4.4979 H         1 <0>         0.0000
     22 H3          2.9053   -2.1899    5.4007 H         1 <0>         0.0000
     23 H4         -0.0214    0.6177    3.4430 H         1 <0>         0.0000
     24 H5         -1.4312   -0.4246    3.5607 H         1 <0>         0.0000
     25 H6         -1.0568   -1.0993    1.3040 H         1 <0>         0.0000
     26 H7          0.3517   -0.0475    1.2566 H         1 <0>         0.0000
     27 H8          0.8423   -0.9104    5.0763 H         1 <0>         0.0000
     28 H9         -0.1781   -2.2282    4.4976 H         1 <0>         0.0000
     29 H10         0.2403   -3.0089    1.9287 H         1 <0>         0.0000
     30 H11         1.5208   -2.1411    1.0720 H         1 <0>         0.0000
     31 H12         1.9941   -2.8611    3.5796 H         1 <0>         0.0000
     32 H13         3.5631   -2.6858    9.0694 H         1 <0>         0.0000
     33 H14         2.7150   -2.7552    7.5116 H         1 <0>         0.0000
     34 H15         2.8689   -1.2135    8.3527 H         1 <0>         0.0000
     35 H16         4.6338    2.5261    1.2726 H         1 <0>         0.0000
     36 H17         6.0306    1.8798    2.1763 H         1 <0>         0.0000
     37 H18         4.8582    2.9708    2.9870 H         1 <0>         0.0000
     38 H19         5.5703   -3.8009    7.9773 H         1 <0>         0.0000
     39 H20         4.9111   -3.7347    6.3087 H         1 <0>         0.0000
     40 H21         7.2837   -2.2805    7.3147 H         1 <0>         0.0000
     41 H22         6.6938   -2.1656    5.7746 H         1 <0>         0.0000
     42 H23         7.3652   -3.6206    6.3009 H         1 <0>         0.0000
     43 H24         5.2680   -0.4273    8.6935 H         1 <0>         0.0000
@<TRIPOS>BOND
     1    1    2 ar
     2    1    4 ar
     3    1   20 1
     4    2    5 ar
     5    2   21 1
     6    3    4 ar
     7    3    6 ar
     8    3   22 1
     9    4   15 1
    10    5    6 ar
    11    5   19 1
    12    6   18 1
    13    7    8 1
    14    7    9 1
    15    7   23 1
    16    7   24 1
    17    8   10 1
    18    8   25 1
    19    8   26 1
    20    9   11 1
    21    9   27 1
    22    9   28 1
    23   10   11 1
    24   10   29 1
    25   10   30 1
    26   11   18 1
    27   11   31 1
    28   12   15 1
    29   12   32 1
    30   12   33 1
    31   12   34 1
    32   13   19 1
    33   13   35 1
    34   13   36 1
    35   13   37 1
    36   14   15 1
    37   14   16 1
    38   14   38 1
    39   14   39 1
    40   15   17 1
    41   16   40 1
    42   16   41 1
    43   16   42 1
    44   17   43 1
