@<TRIPOS>MOLECULE
*****
   43    44     0     0     0
SMALL
NO_CHARGES

@<TRIPOS>ATOM
      1 C1          5.3953   -0.1953    5.2156 C.ar      1 <0>         0.0000
      2 C2          5.1591    0.5731    4.0666 C.ar      1 <0>         0.0000
      3 C3          3.0124   -0.3387    5.5956 C.ar      1 <0>         0.0000
      4 C4          4.3305   -0.6645    5.9844 C.ar      1 <0>         0.0000
      5 C5          3.8589    0.8875    3.6684 C.ar      1 <0>         0.0000
      6 C6          2.7609    0.4201    4.4476 C.ar      1 <0>         0.0000
      7 C7         -0.9579    0.2631    2.5514 C.3       1 <0>         0.0000
      8 C8         -0.3852   -1.1748    2.7173 C.3       1 <0>         0.0000
      9 C9         -0.8313    0.9241    3.9408 C.3       1 <0>         0.0000
     10 C10         0.1642   -1.2547    4.1649 C.3       1 <0>         0.0000
     11 C11         0.3470    0.2068    4.5955 C.3       1 <0>         0.0000
     12 C12         5.6236   -2.5514    7.1437 C.3       1 <0>         0.0000
     13 C13         4.5844    2.0842    1.7324 C.3       1 <0>         0.0000
     14 C14         5.0155   -0.4521    8.3782 C.3       1 <0>         0.0000
     15 C15         4.5806   -1.4404    7.2816 C.3       1 <0>         0.0000
     16 N1          3.8709    0.5188    8.5714 N.4       1 <0>         0.0000
     17 O1          3.3566   -1.9646    7.8326 O.3       1 <0>         0.0000
     18 O2          1.5405    0.7792    4.0008 O.3       1 <0>         0.0000
     19 O3          3.5293    1.6113    2.5756 O.3       1 <0>         0.0000
     20 H1          6.4232   -0.4259    5.4795 H         1 <0>         0.0000
     21 H2          6.0050    0.9136    3.4812 H         1 <0>         0.0000
     22 H3          2.1788   -0.7206    6.1709 H         1 <0>         0.0000
     23 H4         -0.3694    0.8220    1.8201 H         1 <0>         0.0000
     24 H5         -1.9930    0.2601    2.2012 H         1 <0>         0.0000
     25 H6         -1.1445   -1.9422    2.5475 H         1 <0>         0.0000
     26 H7          0.4151   -1.3528    1.9949 H         1 <0>         0.0000
     27 H8         -0.6760    2.0051    3.8993 H         1 <0>         0.0000
     28 H9         -1.7237    0.7344    4.5475 H         1 <0>         0.0000
     29 H10        -0.5686   -1.7170    4.8361 H         1 <0>         0.0000
     30 H11         1.0860   -1.8383    4.2373 H         1 <0>         0.0000
     31 H12         0.3816    0.3553    5.6817 H         1 <0>         0.0000
     32 H13         5.7175   -3.0992    8.0854 H         1 <0>         0.0000
     33 H14         6.6052   -2.1596    6.8676 H         1 <0>         0.0000
     34 H15         5.3165   -3.2477    6.3583 H         1 <0>         0.0000
     35 H16         4.0925    2.6222    0.9228 H         1 <0>         0.0000
     36 H17         5.1628    1.2499    1.3201 H         1 <0>         0.0000
     37 H18         5.2477    2.7670    2.2756 H         1 <0>         0.0000
     38 H19         5.1753   -0.9548    9.3337 H         1 <0>         0.0000
     39 H20         5.8957    0.1202    8.0883 H         1 <0>         0.0000
     40 H21         3.0339   -0.0243    8.8279 H         1 <0>         0.0000
     41 H22         3.6602    0.9773    7.6696 H         1 <0>         0.0000
     42 H23         4.0554    1.2294    9.2873 H         1 <0>         0.0000
     43 H24         3.0362   -2.6927    7.2745 H         1 <0>         0.0000
@<TRIPOS>BOND
     1    1    2 ar
     2    1    4 ar
     3    1   20 1
     4    2    5 ar
     5    2   21 1
     6    3    4 ar
     7    3    6 ar
     8    3   22 1
     9    4   15 1
    10    5    6 ar
    11    5   19 1
    12    6   18 1
    13    7    8 1
    14    7    9 1
    15    7   23 1
    16    7   24 1
    17    8   10 1
    18    8   25 1
    19    8   26 1
    20    9   11 1
    21    9   27 1
    22    9   28 1
    23   10   11 1
    24   10   29 1
    25   10   30 1
    26   11   18 1
    27   11   31 1
    28   12   15 1
    29   12   32 1
    30   12   33 1
    31   12   34 1
    32   13   19 1
    33   13   35 1
    34   13   36 1
    35   13   37 1
    36   14   15 1
    37   14   16 1
    38   14   38 1
    39   14   39 1
    40   15   17 1
    41   16   40 1
    42   16   41 1
    43   16   42 1
    44   17   43 1
