@<TRIPOS>MOLECULE
*****
   43    44     0     0     0
SMALL
NO_CHARGES

@<TRIPOS>ATOM
      1 C1          5.5136   -0.5616    5.7477 C.ar      1 <0>         0.0000
      2 C2          5.1439    0.0869    4.5669 C.ar      1 <0>         0.0000
      3 C3          3.2824   -1.4518    5.9632 C.ar      1 <0>         0.0000
      4 C4          4.5889   -1.3314    6.4654 C.ar      1 <0>         0.0000
      5 C5          3.8376   -0.0295    4.0712 C.ar      1 <0>         0.0000
      6 C6          2.8978   -0.8160    4.7850 C.ar      1 <0>         0.0000
      7 C7          0.1422    1.6026    3.4885 C.3       1 <0>         0.0000
      8 C8         -0.6030    0.3466    2.9535 C.3       1 <0>         0.0000
      9 C9          0.6802    1.2143    4.8913 C.3       1 <0>         0.0000
     10 C10        -0.7051   -0.6112    4.1585 C.3       1 <0>         0.0000
     11 C11         0.5518   -0.3107    4.9683 C.3       1 <0>         0.0000
     12 C12         3.8915   -2.4321    8.6722 C.3       1 <0>         0.0000
     13 C13         4.2825    1.3709    2.1857 C.3       1 <0>         0.0000
     14 C14         5.8278   -3.3145    7.2792 C.3       1 <0>         0.0000
     15 C15         5.0381   -2.0676    7.7190 C.3       1 <0>         0.0000
     16 N1          6.6025   -3.8528    8.4783 N.4       1 <0>         0.0000
     17 O1          6.0478   -1.3255    8.4457 O.3       1 <0>         0.0000
     18 O2          1.6481   -0.9804    4.2696 O.3       1 <0>         0.0000
     19 O3          3.3797    0.5626    2.9460 O.3       1 <0>         0.0000
     20 H1          6.5307   -0.4487    6.1126 H         1 <0>         0.0000
     21 H2          5.8793    0.6867    4.0434 H         1 <0>         0.0000
     22 H3          2.5307   -2.0504    6.4669 H         1 <0>         0.0000
     23 H4          0.9625    1.8760    2.8218 H         1 <0>         0.0000
     24 H5         -0.5231    2.4677    3.5570 H         1 <0>         0.0000
     25 H6         -1.5852    0.5867    2.5383 H         1 <0>         0.0000
     26 H7         -0.0182   -0.1271    2.1610 H         1 <0>         0.0000
     27 H8          1.7028    1.5563    5.0733 H         1 <0>         0.0000
     28 H9          0.0552    1.6446    5.6821 H         1 <0>         0.0000
     29 H10        -1.5776   -0.3703    4.7765 H         1 <0>         0.0000
     30 H11        -0.7696   -1.6658    3.8780 H         1 <0>         0.0000
     31 H12         0.5148   -0.6903    5.9968 H         1 <0>         0.0000
     32 H13         4.2782   -2.8351    9.6148 H         1 <0>         0.0000
     33 H14         3.2085   -3.1651    8.2361 H         1 <0>         0.0000
     34 H15         3.3129   -1.5394    8.9217 H         1 <0>         0.0000
     35 H16         3.7038    1.7379    1.3387 H         1 <0>         0.0000
     36 H17         5.1292    0.7791    1.8202 H         1 <0>         0.0000
     37 H18         4.6459    2.2198    2.7759 H         1 <0>         0.0000
     38 H19         5.1856   -4.1069    6.8953 H         1 <0>         0.0000
     39 H20         6.5747   -3.0440    6.5333 H         1 <0>         0.0000
     40 H21         5.9914   -4.3258    9.1526 H         1 <0>         0.0000
     41 H22         7.0173   -3.0314    8.9515 H         1 <0>         0.0000
     42 H23         7.3458   -4.5066    8.2086 H         1 <0>         0.0000
     43 H24         5.7396   -0.4137    8.5842 H         1 <0>         0.0000
@<TRIPOS>BOND
     1    1    2 ar
     2    1    4 ar
     3    1   20 1
     4    2    5 ar
     5    2   21 1
     6    3    4 ar
     7    3    6 ar
     8    3   22 1
     9    4   15 1
    10    5    6 ar
    11    5   19 1
    12    6   18 1
    13    7    8 1
    14    7    9 1
    15    7   23 1
    16    7   24 1
    17    8   10 1
    18    8   25 1
    19    8   26 1
    20    9   11 1
    21    9   27 1
    22    9   28 1
    23   10   11 1
    24   10   29 1
    25   10   30 1
    26   11   18 1
    27   11   31 1
    28   12   15 1
    29   12   32 1
    30   12   33 1
    31   12   34 1
    32   13   19 1
    33   13   35 1
    34   13   36 1
    35   13   37 1
    36   14   15 1
    37   14   16 1
    38   14   38 1
    39   14   39 1
    40   15   17 1
    41   16   40 1
    42   16   41 1
    43   16   42 1
    44   17   43 1
