@<TRIPOS>MOLECULE
*****
   28    29     0     0     0
SMALL
NO_CHARGES

@<TRIPOS>ATOM
      1 C1         -0.2343    2.6619    0.0619 C.ar      1 <0>         0.0000
      2 C2         -1.7679    0.9228   -0.5896 C.ar      1 <0>         0.0000
      3 C3         -1.5217    2.2776   -0.3439 C.ar      1 <0>         0.0000
      4 C4          0.8019    1.7336    0.2365 C.ar      1 <0>         0.0000
      5 C5         -0.7578   -0.0339   -0.4296 C.ar      1 <0>         0.0000
      6 C6          0.5132    0.3876   -0.0036 C.ar      1 <0>         0.0000
      7 C7         -0.1308   -2.2368   -0.3441 C.2       1 <0>         0.0000
      8 C8          1.0670   -1.8522    0.5102 C.3       1 <0>         0.0000
      9 C9         -2.6067    3.3112   -0.5511 C.3       1 <0>         0.0000
     10 C10         2.1860    2.1474    0.6720 C.3       1 <0>         0.0000
     11 C11         0.7278   -1.9160    2.0032 C.3       1 <0>         0.0000
     12 N1         -1.0038   -1.3824   -0.7504 N.2       1 <0>         0.0000
     13 N2         -0.3092   -3.5895   -0.5683 N.pl3     1 <0>         0.0000
     14 O1          1.5262   -0.5466    0.1323 O.3       1 <0>         0.0000
     15 H1         -0.0289    3.7132    0.2553 H         1 <0>         0.0000
     16 H2         -2.7456    0.5813   -0.9206 H         1 <0>         0.0000
     17 H3          1.9128   -2.5129    0.2946 H         1 <0>         0.0000
     18 H4         -2.6121    3.6774   -1.5853 H         1 <0>         0.0000
     19 H5         -3.5983    2.8962   -0.3466 H         1 <0>         0.0000
     20 H6         -2.4628    4.1779    0.1016 H         1 <0>         0.0000
     21 H7          2.4960    1.6059    1.5721 H         1 <0>         0.0000
     22 H8          2.9289    1.9237   -0.1015 H         1 <0>         0.0000
     23 H9          2.2235    3.2195    0.8824 H         1 <0>         0.0000
     24 H10        -0.0968   -1.2370    2.2373 H         1 <0>         0.0000
     25 H11         1.6017   -1.6252    2.5933 H         1 <0>         0.0000
     26 H12         0.4300   -2.9311    2.2825 H         1 <0>         0.0000
     27 H13        -1.0353   -3.7984   -1.2466 H         1 <0>         0.0000
     28 H14         0.5293   -4.1476   -0.6743 H         1 <0>         0.0000
@<TRIPOS>BOND
     1    1    3 ar
     2    1    4 ar
     3    1   15 1
     4    2    3 ar
     5    2    5 ar
     6    2   16 1
     7    3    9 1
     8    4    6 ar
     9    4   10 1
    10    5    6 ar
    11    5   12 1
    12    6   14 1
    13    7    8 1
    14    7   12 2
    15    7   13 1
    16    8   11 1
    17    8   14 1
    18    8   17 1
    19    9   18 1
    20    9   19 1
    21    9   20 1
    22   10   21 1
    23   10   22 1
    24   10   23 1
    25   11   24 1
    26   11   25 1
    27   11   26 1
    28   13   27 1
    29   13   28 1
