@<TRIPOS>MOLECULE
*****
   42    43     0     0     0
SMALL
NO_CHARGES

@<TRIPOS>ATOM
      1 C1          5.1905   -0.3297    5.8923 C.ar      1 <0>         0.0000
      2 C2          4.9315    0.2984    4.6737 C.ar      1 <0>         0.0000
      3 C3          3.1679   -1.6165    5.6575 C.ar      1 <0>         0.0000
      4 C4          4.3117   -1.3009    6.3971 C.ar      1 <0>         0.0000
      5 C5          3.7826   -0.0132    3.9410 C.ar      1 <0>         0.0000
      6 C6          2.8921   -0.9769    4.4450 C.ar      1 <0>         0.0000
      7 C7          0.0295    1.0396    2.9637 C.3       1 <0>         0.0000
      8 C8         -0.5458   -0.2104    2.2323 C.3       1 <0>         0.0000
      9 C9          0.3372    0.5787    4.4080 C.3       1 <0>         0.0000
     10 C10        -0.5718   -1.3414    3.2884 C.3       1 <0>         0.0000
     11 C11         0.4955   -0.9410    4.3041 C.3       1 <0>         0.0000
     12 C12         5.9416   -2.7150    7.6945 C.3       1 <0>         0.0000
     13 C13         3.5269   -0.1058    1.5797 C.3       1 <0>         0.0000
     14 C14         4.5494   -0.9041    8.8612 C.3       1 <0>         0.0000
     15 C15         4.5949   -1.9760    7.7323 C.3       1 <0>         0.0000
     16 N1          4.6499   -1.3874   10.2379 N.3       1 <0>         0.0000
     17 O1          3.5417   -2.9321    7.9607 O.3       1 <0>         0.0000
     18 O2          1.7721   -1.3003    3.7101 O.3       1 <0>         0.0000
     19 O3          3.5284    0.6835    2.7789 O.3       1 <0>         0.0000
     20 H1          6.0889   -0.0584    6.4399 H         1 <0>         0.0000
     21 H2          5.6065    1.0510    4.2760 H         1 <0>         0.0000
     22 H3          2.4834   -2.3712    6.0263 H         1 <0>         0.0000
     23 H4          0.9484    1.3780    2.4811 H         1 <0>         0.0000
     24 H5         -0.6716    1.8794    2.9551 H         1 <0>         0.0000
     25 H6         -1.5419   -0.0275    1.8183 H         1 <0>         0.0000
     26 H7          0.1006   -0.4920    1.3964 H         1 <0>         0.0000
     27 H8          1.2186    1.0624    4.8369 H         1 <0>         0.0000
     28 H9         -0.5077    0.7865    5.0757 H         1 <0>         0.0000
     29 H10        -1.5405   -1.3732    3.7999 H         1 <0>         0.0000
     30 H11        -0.3800   -2.3337    2.8714 H         1 <0>         0.0000
     31 H12         0.3946   -1.4533    5.2674 H         1 <0>         0.0000
     32 H13         6.1378   -3.2223    8.6481 H         1 <0>         0.0000
     33 H14         6.7731   -2.0308    7.5050 H         1 <0>         0.0000
     34 H15         5.9282   -3.4693    6.9035 H         1 <0>         0.0000
     35 H16         3.3518    0.5928    0.7587 H         1 <0>         0.0000
     36 H17         2.7359   -0.8597    1.6041 H         1 <0>         0.0000
     37 H18         4.5010   -0.5924    1.4429 H         1 <0>         0.0000
     38 H19         3.6015   -0.3666    8.7640 H         1 <0>         0.0000
     39 H20         5.3477   -0.1733    8.6963 H         1 <0>         0.0000
     40 H21         5.5117   -1.9035   10.3992 H         1 <0>         0.0000
     41 H22         3.8650   -1.9915   10.4710 H         1 <0>         0.0000
     42 H23         3.8088   -3.4800    8.7150 H         1 <0>         0.0000
@<TRIPOS>BOND
     1    1    2 ar
     2    1    4 ar
     3    1   20 1
     4    2    5 ar
     5    2   21 1
     6    3    4 ar
     7    3    6 ar
     8    3   22 1
     9    4   15 1
    10    5    6 ar
    11    5   19 1
    12    6   18 1
    13    7    8 1
    14    7    9 1
    15    7   23 1
    16    7   24 1
    17    8   10 1
    18    8   25 1
    19    8   26 1
    20    9   11 1
    21    9   27 1
    22    9   28 1
    23   10   11 1
    24   10   29 1
    25   10   30 1
    26   11   18 1
    27   11   31 1
    28   12   15 1
    29   12   32 1
    30   12   33 1
    31   12   34 1
    32   13   19 1
    33   13   35 1
    34   13   36 1
    35   13   37 1
    36   14   15 1
    37   14   16 1
    38   14   38 1
    39   14   39 1
    40   15   17 1
    41   16   40 1
    42   16   41 1
    43   17   42 1
