@<TRIPOS>MOLECULE
*****
   43    44     0     0     0
SMALL
NO_CHARGES

@<TRIPOS>ATOM
      1 C1          5.8077   -0.3452    4.8115 C.ar      1 <0>         0.0000
      2 C2          5.2163    0.1422    3.6362 C.ar      1 <0>         0.0000
      3 C3          3.9693   -1.8976    5.0735 C.ar      1 <0>         0.0000
      4 C4          5.1945   -1.3646    5.5351 C.ar      1 <0>         0.0000
      5 C5          4.0114   -0.3824    3.1712 C.ar      1 <0>         0.0000
      6 C6          3.3729   -1.4267    3.9060 C.ar      1 <0>         0.0000
      7 C7          0.4470   -3.9935    2.1334 C.3       1 <0>         0.0000
      8 C8          1.3499   -5.0703    2.7626 C.3       1 <0>         0.0000
      9 C9          0.1517   -3.0619    3.3174 C.3       1 <0>         0.0000
     10 C10         2.2043   -4.3120    3.8140 C.3       1 <0>         0.0000
     11 C11         1.4972   -2.9484    4.0399 C.3       1 <0>         0.0000
     12 C12         7.2699   -1.6157    7.0183 C.3       1 <0>         0.0000
     13 C13         3.9548    1.0546    1.2652 C.3       1 <0>         0.0000
     14 C14         4.9437   -1.3337    7.9996 C.3       1 <0>         0.0000
     15 C15         5.7740   -1.9026    6.8335 C.3       1 <0>         0.0000
     16 N1          5.2358   -2.1526    9.2536 N.4       1 <0>         0.0000
     17 O1          5.5399   -3.3276    6.9768 O.3       1 <0>         0.0000
     18 O2          2.2104   -1.8713    3.3837 O.3       1 <0>         0.0000
     19 O3          3.3681    0.0131    2.0507 O.3       1 <0>         0.0000
     20 H1          6.7497    0.0878    5.1292 H         1 <0>         0.0000
     21 H2          5.7148    0.9324    3.0875 H         1 <0>         0.0000
     22 H3          3.5037   -2.7086    5.6203 H         1 <0>         0.0000
     23 H4          0.9882   -3.4430    1.3566 H         1 <0>         0.0000
     24 H5         -0.4574   -4.4090    1.6811 H         1 <0>         0.0000
     25 H6          0.7306   -5.8250    3.2592 H         1 <0>         0.0000
     26 H7          1.9670   -5.5920    2.0265 H         1 <0>         0.0000
     27 H8         -0.2347   -2.0788    3.0381 H         1 <0>         0.0000
     28 H9         -0.5704   -3.5333    3.9948 H         1 <0>         0.0000
     29 H10         2.2915   -4.8751    4.7492 H         1 <0>         0.0000
     30 H11         3.2196   -4.1369    3.4477 H         1 <0>         0.0000
     31 H12         1.3787   -2.6857    5.0976 H         1 <0>         0.0000
     32 H13         7.6612   -2.1316    7.9023 H         1 <0>         0.0000
     33 H14         7.4750   -0.5474    7.1209 H         1 <0>         0.0000
     34 H15         7.8329   -1.9872    6.1590 H         1 <0>         0.0000
     35 H16         3.2761    1.2060    0.4265 H         1 <0>         0.0000
     36 H17         4.9407    0.7576    0.8899 H         1 <0>         0.0000
     37 H18         4.0385    1.9832    1.8412 H         1 <0>         0.0000
     38 H19         5.1706   -0.2881    8.2064 H         1 <0>         0.0000
     39 H20         3.8791   -1.4534    7.8010 H         1 <0>         0.0000
     40 H21         6.1594   -1.9407    9.6458 H         1 <0>         0.0000
     41 H22         5.2395   -3.1449    8.9598 H         1 <0>         0.0000
     42 H23         4.5366   -2.0131    9.9912 H         1 <0>         0.0000
     43 H24         5.8038   -3.7793    6.1572 H         1 <0>         0.0000
@<TRIPOS>BOND
     1    1    2 ar
     2    1    4 ar
     3    1   20 1
     4    2    5 ar
     5    2   21 1
     6    3    4 ar
     7    3    6 ar
     8    3   22 1
     9    4   15 1
    10    5    6 ar
    11    5   19 1
    12    6   18 1
    13    7    8 1
    14    7    9 1
    15    7   23 1
    16    7   24 1
    17    8   10 1
    18    8   25 1
    19    8   26 1
    20    9   11 1
    21    9   27 1
    22    9   28 1
    23   10   11 1
    24   10   29 1
    25   10   30 1
    26   11   18 1
    27   11   31 1
    28   12   15 1
    29   12   32 1
    30   12   33 1
    31   12   34 1
    32   13   19 1
    33   13   35 1
    34   13   36 1
    35   13   37 1
    36   14   15 1
    37   14   16 1
    38   14   38 1
    39   14   39 1
    40   15   17 1
    41   16   40 1
    42   16   41 1
    43   16   42 1
    44   17   43 1
