@<TRIPOS>MOLECULE
*****
   29    30     0     0     0
SMALL
NO_CHARGES

@<TRIPOS>ATOM
      1 C1         -1.6399    2.0715   -0.8559 C.ar      1 <0>         0.0000
      2 C2         -1.2039   -0.0236   -1.9615 C.ar      1 <0>         0.0000
      3 C3         -1.9589    1.1489   -1.8691 C.ar      1 <0>         0.0000
      4 C4         -0.6101    1.8680    0.0701 C.ar      1 <0>         0.0000
      5 C5         -0.1697   -0.2383   -1.0489 C.ar      1 <0>         0.0000
      6 C6          0.1203    0.6805   -0.0411 C.ar      1 <0>         0.0000
      7 C7          1.4872   -1.7364   -0.1615 C.cat     1 <0>         0.0000
      8 C8          1.3947   -0.9320    1.1269 C.3       1 <0>         0.0000
      9 C9         -3.0979    1.4221   -2.8217 C.3       1 <0>         0.0000
     10 C10        -0.2720    2.8719    1.1418 C.3       1 <0>         0.0000
     11 C11         0.3064   -1.5011    2.0439 C.3       1 <0>         0.0000
     12 N1          0.6723   -1.3886   -1.1397 N.pl3     1 <0>         0.0000
     13 N2          2.3386   -2.7561   -0.2512 N.pl3     1 <0>         0.0000
     14 O1          1.1904    0.4407    0.8052 O.3       1 <0>         0.0000
     15 H1         -2.2235    2.9862   -0.7823 H         1 <0>         0.0000
     16 H2         -1.4174   -0.7598   -2.7335 H         1 <0>         0.0000
     17 H3          2.3662   -0.9612    1.6257 H         1 <0>         0.0000
     18 H4         -3.0035    2.4154   -3.2704 H         1 <0>         0.0000
     19 H5         -3.1331    0.6882   -3.6304 H         1 <0>         0.0000
     20 H6         -4.0591    1.3902   -2.2978 H         1 <0>         0.0000
     21 H7         -0.2869    2.4101    2.1338 H         1 <0>         0.0000
     22 H8          0.7330    3.2798    0.9937 H         1 <0>         0.0000
     23 H9         -0.9822    3.7006    1.1351 H         1 <0>         0.0000
     24 H10        -0.6741   -1.4787    1.5620 H         1 <0>         0.0000
     25 H11         0.2660   -0.8928    2.9503 H         1 <0>         0.0000
     26 H12         0.5360   -2.5326    2.3272 H         1 <0>         0.0000
     27 H13         0.6636   -1.9063   -2.0159 H         1 <0>         0.0000
     28 H14         2.4208   -3.3394   -1.0785 H         1 <0>         0.0000
     29 H15         2.9535   -2.9752    0.5242 H         1 <0>         0.0000
@<TRIPOS>BOND
     1    1    3 ar
     2    1    4 ar
     3    1   15 1
     4    2    3 ar
     5    2    5 ar
     6    2   16 1
     7    3    9 1
     8    4    6 ar
     9    4   10 1
    10    5    6 ar
    11    5   12 1
    12    6   14 1
    13    7    8 1
    14    7   12 2
    15    7   13 1
    16    8   11 1
    17    8   14 1
    18    8   17 1
    19    9   18 1
    20    9   19 1
    21    9   20 1
    22   10   21 1
    23   10   22 1
    24   10   23 1
    25   11   24 1
    26   11   25 1
    27   11   26 1
    28   12   27 1
    29   13   28 1
    30   13   29 1
