@<TRIPOS>MOLECULE
*****
   29    30     0     0     0
SMALL
NO_CHARGES

@<TRIPOS>ATOM
      1 C1         -1.4653    2.2452   -0.7067 C.ar      1 <0>         0.0000
      2 C2         -1.3251    0.1462   -1.8798 C.ar      1 <0>         0.0000
      3 C3         -1.9456    1.3873   -1.7130 C.ar      1 <0>         0.0000
      4 C4         -0.4030    1.9126    0.1421 C.ar      1 <0>         0.0000
      5 C5         -0.2606   -0.1978   -1.0450 C.ar      1 <0>         0.0000
      6 C6          0.1903    0.6595   -0.0421 C.ar      1 <0>         0.0000
      7 C7          1.2862   -1.8812   -0.3029 C.cat     1 <0>         0.0000
      8 C8          1.3643   -1.1057    1.0040 C.3       1 <0>         0.0000
      9 C9         -3.1111    1.8009   -2.5791 C.3       1 <0>         0.0000
     10 C10         0.1088    2.8478    1.2069 C.3       1 <0>         0.0000
     11 C11         0.2860   -1.5838    1.9828 C.3       1 <0>         0.0000
     12 N1          0.4488   -1.4258   -1.2157 N.pl3     1 <0>         0.0000
     13 N2          2.0186   -2.9804   -0.4708 N.pl3     1 <0>         0.0000
     14 O1          1.2834    0.2887    0.7236 O.3       1 <0>         0.0000
     15 H1         -1.9438    3.2129   -0.5755 H         1 <0>         0.0000
     16 H2         -1.6653   -0.5436   -2.6492 H         1 <0>         0.0000
     17 H3          2.3585   -1.2478    1.4339 H         1 <0>         0.0000
     18 H4         -2.9467    2.7933   -3.0093 H         1 <0>         0.0000
     19 H5         -3.2729    1.0992   -3.4007 H         1 <0>         0.0000
     20 H6         -4.0343    1.8483   -1.9918 H         1 <0>         0.0000
     21 H7          0.1118    2.3642    2.1885 H         1 <0>         0.0000
     22 H8          1.1389    3.1538    0.9977 H         1 <0>         0.0000
     23 H9         -0.5097    3.7452    1.2651 H         1 <0>         0.0000
     24 H10        -0.7167   -1.4475    1.5705 H         1 <0>         0.0000
     25 H11         0.3703   -0.9990    2.9016 H         1 <0>         0.0000
     26 H12         0.4247   -2.6406    2.2293 H         1 <0>         0.0000
     27 H13         0.3277   -1.9167   -2.0990 H         1 <0>         0.0000
     28 H14         1.9841   -3.5472   -1.3128 H         1 <0>         0.0000
     29 H15         2.6576   -3.2819    0.2560 H         1 <0>         0.0000
@<TRIPOS>BOND
     1    1    3 ar
     2    1    4 ar
     3    1   15 1
     4    2    3 ar
     5    2    5 ar
     6    2   16 1
     7    3    9 1
     8    4    6 ar
     9    4   10 1
    10    5    6 ar
    11    5   12 1
    12    6   14 1
    13    7    8 1
    14    7   12 1
    15    7   13 2
    16    8   11 1
    17    8   14 1
    18    8   17 1
    19    9   18 1
    20    9   19 1
    21    9   20 1
    22   10   21 1
    23   10   22 1
    24   10   23 1
    25   11   24 1
    26   11   25 1
    27   11   26 1
    28   12   27 1
    29   13   28 1
    30   13   29 1
