@<TRIPOS>MOLECULE
*****
   55    57     0     0     0
SMALL
NO_CHARGES

@<TRIPOS>ATOM
      1 C1         -1.2199    8.4188    7.5146 C.ar      1 <0>         0.0000
      2 C2         -3.0287    9.9386    8.0586 C.ar      1 <0>         0.0000
      3 C3         -0.3097    9.3051    8.1035 C.ar      1 <0>         0.0000
      4 C4         -2.1235   10.8189    8.6435 C.ar      1 <0>         0.0000
      5 C5         -2.5863    8.7325    7.4893 C.ar      1 <0>         0.0000
      6 C6         -0.7622   10.4966    8.6630 C.ar      1 <0>         0.0000
      7 C7         -3.6377    2.9616   -0.8420 C.3       1 <0>         0.0000
      8 C8         -3.2822    4.2708   -0.1293 C.3       1 <0>         0.0000
      9 C9         -4.1746    1.9444    0.1713 C.3       1 <0>         0.0000
     10 C10        -2.3414    4.0211    1.0519 C.3       1 <0>         0.0000
     11 C11        -3.1977    1.7720    1.3358 C.3       1 <0>         0.0000
     12 C12        -1.4566    3.7787    5.4493 C.3       1 <0>         0.0000
     13 C13        -1.8674    4.1279    4.0132 C.3       1 <0>         0.0000
     14 C14        -3.9477    4.6579    5.1135 C.3       1 <0>         0.0000
     15 C15        -5.1081    3.8610    4.5111 C.3       1 <0>         0.0000
     16 C16        -5.0559    6.9163    4.7333 C.3       1 <0>         0.0000
     17 C17        -5.3884    5.7369    6.9351 C.3       1 <0>         0.0000
     18 C18        -2.1020    2.8551    3.1777 C.3       1 <0>         0.0000
     19 C19        -3.1486    6.7065    6.3396 C.3       1 <0>         0.0000
     20 C20        -4.3985    5.9978    5.7863 C.3       1 <0>         0.0000
     21 N1         -2.9161    3.0528    1.9894 N.3       1 <0>         0.0000
     22 O1         -2.9938    4.9982    4.1061 O.3       1 <0>         0.0000
     23 O2         -3.5535    7.9423    6.9426 O.3       1 <0>         0.0000
     24 S1         -3.0373    3.5165    6.3228 S.3       1 <0>         0.0000
     25 Cl1         0.3850   11.6083    9.4018 Cl        1 <0>         0.0000
     26 H1         -0.8490    7.4956    7.0857 H         1 <0>         0.0000
     27 H2         -4.0895   10.1694    8.0327 H         1 <0>         0.0000
     28 H3          0.7482    9.0622    8.1238 H         1 <0>         0.0000
     29 H4         -2.4692   11.7498    9.0820 H         1 <0>         0.0000
     30 H5         -2.7391    2.5535   -1.3253 H         1 <0>         0.0000
     31 H6         -4.3713    3.1406   -1.6363 H         1 <0>         0.0000
     32 H7         -2.8110    4.9766   -0.8231 H         1 <0>         0.0000
     33 H8         -4.1958    4.7442    0.2497 H         1 <0>         0.0000
     34 H9         -5.1364    2.2916    0.5680 H         1 <0>         0.0000
     35 H10        -4.3470    0.9725   -0.3052 H         1 <0>         0.0000
     36 H11        -1.3572    3.6715    0.6758 H         1 <0>         0.0000
     37 H12        -2.1747    4.9623    1.5810 H         1 <0>         0.0000
     38 H13        -3.6224    1.0927    2.0837 H         1 <0>         0.0000
     39 H14        -2.2646    1.2994    0.9650 H         1 <0>         0.0000
     40 H15        -0.8643    2.8614    5.4963 H         1 <0>         0.0000
     41 H16        -0.8895    4.5938    5.9069 H         1 <0>         0.0000
     42 H17        -1.0886    4.7365    3.5439 H         1 <0>         0.0000
     43 H18        -4.7204    3.0062    3.9601 H         1 <0>         0.0000
     44 H19        -5.6702    4.4789    3.8072 H         1 <0>         0.0000
     45 H20        -5.7850    3.5007    5.2894 H         1 <0>         0.0000
     46 H21        -5.2249    7.9047    5.1671 H         1 <0>         0.0000
     47 H22        -4.4161    7.0281    3.8541 H         1 <0>         0.0000
     48 H23        -6.0242    6.5261    4.4098 H         1 <0>         0.0000
     49 H24        -5.6368    6.6802    7.4269 H         1 <0>         0.0000
     50 H25        -4.9624    5.0667    7.6886 H         1 <0>         0.0000
     51 H26        -6.3190    5.2969    6.5672 H         1 <0>         0.0000
     52 H27        -2.5977    2.1054    3.8033 H         1 <0>         0.0000
     53 H28        -1.0971    2.4511    2.9334 H         1 <0>         0.0000
     54 H29        -2.4449    6.9103    5.5263 H         1 <0>         0.0000
     55 H30        -2.6615    6.0790    7.0934 H         1 <0>         0.0000
@<TRIPOS>BOND
     1    1    3 ar
     2    1    5 ar
     3    1   26 1
     4    2    4 ar
     5    2    5 ar
     6    2   27 1
     7    3    6 ar
     8    3   28 1
     9    4    6 ar
    10    4   29 1
    11    5   23 1
    12    6   25 1
    13    7    9 1
    14    7    8 1
    15    7   30 1
    16    7   31 1
    17    8   10 1
    18    8   32 1
    19    8   33 1
    20    9   11 1
    21    9   34 1
    22    9   35 1
    23   10   21 1
    24   10   36 1
    25   10   37 1
    26   11   21 1
    27   11   38 1
    28   11   39 1
    29   12   13 1
    30   12   24 1
    31   12   40 1
    32   12   41 1
    33   13   18 1
    34   13   22 1
    35   13   42 1
    36   14   15 1
    37   14   20 1
    38   14   22 1
    39   14   24 1
    40   15   43 1
    41   15   44 1
    42   15   45 1
    43   16   20 1
    44   16   46 1
    45   16   47 1
    46   16   48 1
    47   17   20 1
    48   17   49 1
    49   17   50 1
    50   17   51 1
    51   18   21 1
    52   18   52 1
    53   18   53 1
    54   19   20 1
    55   19   23 1
    56   19   54 1
    57   19   55 1
