@<TRIPOS>MOLECULE
*****
   22    23     0     0     0
SMALL
NO_CHARGES

@<TRIPOS>ATOM
      1 C1         -1.6215   -1.7137    1.0684 C.ar      1 <0>         0.0000
      2 C2         -2.9122   -2.0239   -1.2478 C.ar      1 <0>         0.0000
      3 C3         -1.1915   -1.0781   -0.0755 C.ar      1 <0>         0.0000
      4 C4         -3.3418   -2.6601   -0.1041 C.ar      1 <0>         0.0000
      5 C5         -0.1180    1.2100   -0.5791 C.3       1 <0>         0.0000
      6 C6         -0.0223    1.0013    0.8999 C.3       1 <0>         0.0000
      7 C7          0.0107   -0.1991   -0.0290 C.3       1 <0>         0.0000
      8 C8          1.3241   -0.9072   -0.2135 C.3       1 <0>         0.0000
      9 N1         -1.8293   -1.2215   -1.2541 N.ar      1 <0>         0.0000
     10 N2         -2.7041   -2.5164    1.0746 N.ar      1 <0>         0.0000
     11 N3          1.5653   -1.1722   -1.6003 N.3       1 <0>         0.0000
     12 Br1        -4.8682   -3.7773   -0.1715 Br        1 <0>         0.0000
     13 H1         -1.1150   -1.6036    2.0203 H         1 <0>         0.0000
     14 H2         -3.4145   -2.1316   -2.2022 H         1 <0>         0.0000
     15 H3         -1.0733    1.5287   -0.9802 H         1 <0>         0.0000
     16 H4          0.7356    1.6489   -1.0826 H         1 <0>         0.0000
     17 H5          0.8957    1.3007    1.3922 H         1 <0>         0.0000
     18 H6         -0.9132    1.1786    1.4915 H         1 <0>         0.0000
     19 H7          1.3111   -1.8575    0.3198 H         1 <0>         0.0000
     20 H8          2.1392   -0.2906    0.1639 H         1 <0>         0.0000
     21 H9          0.7930   -1.4300   -2.1988 H         1 <0>         0.0000
     22 H10         2.5139   -1.2996   -1.9243 H         1 <0>         0.0000
@<TRIPOS>BOND
     1    1    3 ar
     2    1   10 ar
     3    1   13 1
     4    2    4 ar
     5    2    9 ar
     6    2   14 1
     7    3    7 1
     8    3    9 ar
     9    4   10 ar
    10    4   12 1
    11    5    6 1
    12    5    7 1
    13    5   15 1
    14    5   16 1
    15    6    7 1
    16    6   17 1
    17    6   18 1
    18    7    8 1
    19    8   11 1
    20    8   19 1
    21    8   20 1
    22   11   21 1
    23   11   22 1
