@<TRIPOS>MOLECULE
*****
   15    14     0     0     0
SMALL
NO_CHARGES

@<TRIPOS>ATOM
      1 C1          4.6800   -4.7177    3.4448 C.1       1 <0>         0.0000
      2 C2          2.0690   -1.1599   -0.5506 C.3       1 <0>         0.0000
      3 C3          4.5339   -2.2407    3.1212 C.3       1 <0>         0.0000
      4 C4          3.0301   -1.9890    2.9799 C.3       1 <0>         0.0000
      5 N1          4.8340   -3.5428    3.6516 N.2       1 <0>         0.0000
      6 S1          4.5722   -6.2948    3.3015 S.2       1 <0>         0.0000
      7 S2          3.0819   -2.5913   -0.0152 S.3       1 <0>         0.0000
      8 S3          2.1816   -3.1085    1.7973 S.3       1 <0>         0.0000
      9 H1          2.4581   -0.8545   -1.5267 H         1 <0>         0.0000
     10 H2          2.1622   -0.3258    0.1483 H         1 <0>         0.0000
     11 H3          1.0215   -1.4493   -0.6511 H         1 <0>         0.0000
     12 H4          4.9552   -1.4875    3.7944 H         1 <0>         0.0000
     13 H5          5.0212   -2.1258    2.1460 H         1 <0>         0.0000
     14 H6          2.5223   -2.1560    3.9353 H         1 <0>         0.0000
     15 H7          2.8671   -0.9489    2.6821 H         1 <0>         0.0000
@<TRIPOS>BOND
     1    1    5 2
     2    1    6 2
     3    2    7 1
     4    2    9 1
     5    2   10 1
     6    2   11 1
     7    3    4 1
     8    3    5 1
     9    3   12 1
    10    3   13 1
    11    4    8 1
    12    4   14 1
    13    4   15 1
    14    7    8 1
