@<TRIPOS>MOLECULE
*****
   15    14     0     0     0
SMALL
NO_CHARGES

@<TRIPOS>ATOM
      1 C1          4.0676   -3.6410    5.1092 C.1       1 <0>         0.0000
      2 C2          2.1671   -1.8857   -0.2405 C.3       1 <0>         0.0000
      3 C3          4.5695   -1.7003    3.6125 C.3       1 <0>         0.0000
      4 C4          3.1887   -1.1242    3.2866 C.3       1 <0>         0.0000
      5 N1          4.5460   -2.6045    4.7298 N.2       1 <0>         0.0000
      6 S1          3.5297   -4.9937    5.7416 S.2       1 <0>         0.0000
      7 S2          2.7769   -3.0996    0.9909 S.3       1 <0>         0.0000
      8 S3          1.9485   -2.3746    2.7660 S.3       1 <0>         0.0000
      9 H1          2.5232   -2.2305   -1.2161 H         1 <0>         0.0000
     10 H2          2.5684   -0.8886   -0.0455 H         1 <0>         0.0000
     11 H3          1.0762   -1.8572   -0.2408 H         1 <0>         0.0000
     12 H4          5.2481   -0.8748    3.8494 H         1 <0>         0.0000
     13 H5          4.9698   -2.2197    2.7340 H         1 <0>         0.0000
     14 H6          2.7521   -0.6510    4.1721 H         1 <0>         0.0000
     15 H7          3.2925   -0.3635    2.5072 H         1 <0>         0.0000
@<TRIPOS>BOND
     1    1    5 2
     2    1    6 2
     3    2    7 1
     4    2    9 1
     5    2   10 1
     6    2   11 1
     7    3    4 1
     8    3    5 1
     9    3   12 1
    10    3   13 1
    11    4    8 1
    12    4   14 1
    13    4   15 1
    14    7    8 1
