@<TRIPOS>MOLECULE
*****
   20    19     0     0     0
SMALL
NO_CHARGES

@<TRIPOS>ATOM
      1 C1         -1.2253   -1.5731   -0.7416 C.2       1 <0>         0.0000
      2 C2         -1.4723   -3.0363   -0.4214 C.3       1 <0>         0.0000
      3 C3          0.9072    0.9279   -1.8507 C.3       1 <0>         0.0000
      4 C4          1.0431    2.3907    2.5564 C.3       1 <0>         0.0000
      5 N1         -0.4811   -0.8960    0.2375 N.am      1 <0>         0.0000
      6 O1         -1.6200   -1.0302   -1.7586 O.2       1 <0>         0.0000
      7 O2         -1.5636    1.4505    1.1400 O.2       1 <0>         0.0000
      8 O3         -0.1149    1.4334   -0.9662 O.3       1 <0>         0.0000
      9 P1         -0.4119    0.8056    0.4708 P.3       1 <0>         0.0000
     10 S1          1.3718    0.8450    1.6151 S.3       1 <0>         0.0000
     11 H1         -2.1866   -3.1169    0.4053 H         1 <0>         0.0000
     12 H2         -0.5492   -3.5427   -0.1218 H         1 <0>         0.0000
     13 H3         -1.8901   -3.5251   -1.3011 H         1 <0>         0.0000
     14 H4          1.0071    1.6705   -2.6425 H         1 <0>         0.0000
     15 H5          0.5868   -0.0251   -2.2741 H         1 <0>         0.0000
     16 H6          1.8584    0.8244   -1.3198 H         1 <0>         0.0000
     17 H7          1.7878    2.4242    3.3538 H         1 <0>         0.0000
     18 H8          0.0381    2.3606    2.9767 H         1 <0>         0.0000
     19 H9          1.1542    3.2630    1.9115 H         1 <0>         0.0000
     20 H10        -0.2813   -1.4274    1.0807 H         1 <0>         0.0000
@<TRIPOS>BOND
     1    1    2 1
     2    1    5 am
     3    1    6 2
     4    2   11 1
     5    2   12 1
     6    2   13 1
     7    3    8 1
     8    3   14 1
     9    3   15 1
    10    3   16 1
    11    4   10 1
    12    4   17 1
    13    4   18 1
    14    4   19 1
    15    5    9 1
    16    5   20 1
    17    7    9 2
    18    8    9 1
    19    9   10 1
