@<TRIPOS>MOLECULE
*****
   20    19     0     0     0
SMALL
NO_CHARGES

@<TRIPOS>ATOM
      1 C1         -0.5176   -1.2701    1.3926 C.2       1 <0>         0.0000
      2 C2         -0.9156   -2.7176    1.1758 C.3       1 <0>         0.0000
      3 C3          1.2786    1.0461   -1.9417 C.3       1 <0>         0.0000
      4 C4          0.7885    2.2323    2.8201 C.3       1 <0>         0.0000
      5 N1         -0.4167   -0.5115    0.2298 N.am      1 <0>         0.0000
      6 O1         -0.2972   -0.7917    2.4957 O.2       1 <0>         0.0000
      7 O2         -1.4852    1.9296    0.7023 O.2       1 <0>         0.0000
      8 O3          0.0170    1.4180   -1.3468 O.3       1 <0>         0.0000
      9 P1         -0.2857    1.2089    0.2266 P.3       1 <0>         0.0000
     10 S1          1.5060    1.6993    1.2129 S.3       1 <0>         0.0000
     11 H1         -0.3631   -3.1718    0.3475 H         1 <0>         0.0000
     12 H2         -1.9847   -2.7716    0.9421 H         1 <0>         0.0000
     13 H3         -0.7290   -3.2764    2.0928 H         1 <0>         0.0000
     14 H4          1.1428    1.1347   -3.0198 H         1 <0>         0.0000
     15 H5          1.5482    0.0166   -1.6844 H         1 <0>         0.0000
     16 H6          2.0656    1.7292   -1.6118 H         1 <0>         0.0000
     17 H7          1.6211    2.6594    3.3828 H         1 <0>         0.0000
     18 H8          0.3770    1.3658    3.3355 H         1 <0>         0.0000
     19 H9          0.0200    2.9854    2.6499 H         1 <0>         0.0000
     20 H10        -0.7527   -0.9304   -0.6331 H         1 <0>         0.0000
@<TRIPOS>BOND
     1    1    2 1
     2    1    5 am
     3    1    6 2
     4    2   11 1
     5    2   12 1
     6    2   13 1
     7    3    8 1
     8    3   14 1
     9    3   15 1
    10    3   16 1
    11    4   10 1
    12    4   17 1
    13    4   18 1
    14    4   19 1
    15    5    9 1
    16    5   20 1
    17    7    9 2
    18    8    9 1
    19    9   10 1
