@<TRIPOS>MOLECULE
*****
   12    12     0     0     0
SMALL
NO_CHARGES

@<TRIPOS>ATOM
      1 C1          1.5308    0.4767    1.5866 C.2       1 <0>         0.0000
      2 C2          0.2747    0.0145    1.0408 C.2       1 <0>         0.0000
      3 C3          1.4838    0.3282    2.9458 C.2       1 <0>         0.0000
      4 C4         -0.5100   -0.4052    2.0800 C.2       1 <0>         0.0000
      5 N1          0.2287   -0.2151    3.2570 N.pl3     1 <0>         0.0000
      6 O1          2.4192    0.6212    3.8917 O.3       1 <0>         0.0000
      7 O2         -1.7710   -0.9203    2.0724 O.3       1 <0>         0.0000
      8 Br1        -0.3679   -0.6202    4.9743 Br        1 <0>         0.0000
      9 H1          2.3739    0.8738    1.0382 H         1 <0>         0.0000
     10 H2         -0.0168   -0.0061   -0.0002 H         1 <0>         0.0000
     11 H3          2.0834    0.3991    4.7754 H         1 <0>         0.0000
     12 H4         -2.0555   -1.1239    2.9784 H         1 <0>         0.0000
@<TRIPOS>BOND
     1    1    2 1
     2    1    3 2
     3    1    9 1
     4    2    4 2
     5    2   10 1
     6    3    5 1
     7    3    6 1
     8    4    5 1
     9    4    7 1
    10    5    8 1
    11    6   11 1
    12    7   12 1
