@<TRIPOS>MOLECULE
*****
   20    19     0     0     0
SMALL
NO_CHARGES

@<TRIPOS>ATOM
      1 C1         -1.3057    0.4676    1.1522 C.2       1 <0>         0.0000
      2 C2          2.5515    0.3370   -1.4029 C.3       1 <0>         0.0000
      3 C3          1.3552   -1.9521    1.1553 C.3       1 <0>         0.0000
      4 C4         -2.6723    1.1635    1.5023 C.3       1 <0>         0.0000
      5 N1         -1.1763    0.1275   -0.1678 N.am      1 <0>         0.0000
      6 O1         -0.4704    0.2593    2.0070 O.2       1 <0>         0.0000
      7 O2         -0.1578   -0.9356   -2.3078 O.2       1 <0>         0.0000
      8 O3          1.3331    0.4330   -0.6229 O.3       1 <0>         0.0000
      9 O4          0.5212   -1.9181   -0.0315 O.3       1 <0>         0.0000
     10 P1          0.1682   -0.6357   -0.9019 P.3       1 <0>         0.0000
     11 Cl1        -4.0114    0.0114    1.1202 Cl        1 <0>         0.0000
     12 Cl2        -2.7198    1.5980    3.2187 Cl        1 <0>         0.0000
     13 Cl3        -2.8493    2.6484    0.4873 Cl        1 <0>         0.0000
     14 H1          3.1435    1.2129   -1.1387 H         1 <0>         0.0000
     15 H2          2.3160    0.3421   -2.4691 H         1 <0>         0.0000
     16 H3          3.1005   -0.5738   -1.1455 H         1 <0>         0.0000
     17 H4          2.0779   -2.7555    1.0013 H         1 <0>         0.0000
     18 H5          0.7177   -2.1653    2.0126 H         1 <0>         0.0000
     19 H6          1.8601   -0.9986    1.3086 H         1 <0>         0.0000
     20 H7         -1.9296    0.3455   -0.8142 H         1 <0>         0.0000
@<TRIPOS>BOND
     1    1    4 1
     2    1    5 am
     3    1    6 2
     4    2    8 1
     5    2   14 1
     6    2   15 1
     7    2   16 1
     8    3    9 1
     9    3   17 1
    10    3   18 1
    11    3   19 1
    12    4   11 1
    13    4   12 1
    14    4   13 1
    15    5   10 1
    16    5   20 1
    17    7   10 2
    18    8   10 1
    19    9   10 1
