@<TRIPOS>MOLECULE
*****
   24    24     0     0     0
SMALL
NO_CHARGES

@<TRIPOS>ATOM
      1 C1          4.4747    1.9944   -4.6900 C.2       1 <0>         0.0000
      2 C2          3.7333    1.0793   -3.9975 C.2       1 <0>         0.0000
      3 C3          5.4583   -0.2887   -4.4281 C.2       1 <0>         0.0000
      4 C4          1.2958    0.5967   -4.1836 C.2       1 <0>         0.0000
      5 C5          0.2546   -1.4992   -4.4800 C.3       1 <0>         0.0000
      6 C6          4.3257   -3.2612   -4.2204 C.3       1 <0>         0.0000
      7 C7          2.3644    1.3493   -3.4141 C.3       1 <0>         0.0000
      8 N1          4.2680   -0.1782   -3.8478 N.2       1 <0>         0.0000
      9 N2          6.2891   -1.3287   -4.5583 N.2       1 <0>         0.0000
     10 O1          0.6654    1.0380   -5.1298 O.2       1 <0>         0.0000
     11 O2          5.9192   -2.4952   -2.2497 O.2       1 <0>         0.0000
     12 O3          6.9265   -3.7224   -4.2109 O.2       1 <0>         0.0000
     13 O4          1.1276   -0.6603   -3.7081 O.3       1 <0>         0.0000
     14 S1          5.9803    1.2595   -5.2071 S.3       1 <0>         0.0000
     15 S2          5.9822   -2.6974   -3.7159 S.o2      1 <0>         0.0000
     16 H1          4.2170    3.0167   -4.9348 H         1 <0>         0.0000
     17 H2          0.2772   -2.4727   -3.9890 H         1 <0>         0.0000
     18 H3          0.6183   -1.5825   -5.5074 H         1 <0>         0.0000
     19 H4         -0.7624   -1.0959   -4.4925 H         1 <0>         0.0000
     20 H5          4.1449   -4.2030   -3.6968 H         1 <0>         0.0000
     21 H6          3.6036   -2.4958   -3.9357 H         1 <0>         0.0000
     22 H7          4.3390   -3.4185   -5.3010 H         1 <0>         0.0000
     23 H8          2.3486    1.0277   -2.3684 H         1 <0>         0.0000
     24 H9          2.1306    2.4134   -3.4811 H         1 <0>         0.0000
@<TRIPOS>BOND
     1    1    2 2
     2    1   14 1
     3    1   16 1
     4    2    7 1
     5    2    8 1
     6    3    8 2
     7    3    9 1
     8    3   14 1
     9    4    7 1
    10    4   10 2
    11    4   13 1
    12    5   13 1
    13    5   17 1
    14    5   18 1
    15    5   19 1
    16    6   15 1
    17    6   20 1
    18    6   21 1
    19    6   22 1
    20    7   23 1
    21    7   24 1
    22    9   15 1
    23   11   15 2
    24   12   15 2
