@<TRIPOS>MOLECULE
*****
   24    24     0     0     0
SMALL
NO_CHARGES

@<TRIPOS>ATOM
      1 C1          4.3906    1.7768   -5.5825 C.2       1 <0>         0.0000
      2 C2          3.7707    1.1283   -4.5538 C.2       1 <0>         0.0000
      3 C3          5.6909   -0.0358   -4.4508 C.2       1 <0>         0.0000
      4 C4          2.3942    1.0733   -2.5122 C.2       1 <0>         0.0000
      5 C5          3.7572    1.2930   -0.5869 C.3       1 <0>         0.0000
      6 C6          5.0790   -2.7594   -2.8552 C.3       1 <0>         0.0000
      7 C7          2.3968    1.4228   -3.9925 C.3       1 <0>         0.0000
      8 N1          4.4751    0.1164   -3.9439 N.2       1 <0>         0.0000
      9 N2          6.6788   -0.8782   -4.1190 N.2       1 <0>         0.0000
     10 O1          1.7055    0.2061   -2.0038 O.2       1 <0>         0.0000
     11 O2          6.2919   -0.8192   -1.5321 O.2       1 <0>         0.0000
     12 O3          7.7065   -2.6020   -2.6214 O.2       1 <0>         0.0000
     13 O4          3.2756    1.8393   -1.8357 O.3       1 <0>         0.0000
     14 S1          5.9958    1.1015   -5.8201 S.3       1 <0>         0.0000
     15 S2          6.5440   -1.6932   -2.7071 S.o2      1 <0>         0.0000
     16 H1          4.0209    2.5986   -6.1825 H         1 <0>         0.0000
     17 H2          4.3099    2.1039   -0.1093 H         1 <0>         0.0000
     18 H3          4.4302    0.4597   -0.8095 H         1 <0>         0.0000
     19 H4          2.9233    0.9716    0.0419 H         1 <0>         0.0000
     20 H5          5.0104   -3.3318   -1.9272 H         1 <0>         0.0000
     21 H6          4.2055   -2.1228   -2.9954 H         1 <0>         0.0000
     22 H7          5.2330   -3.4245   -3.7072 H         1 <0>         0.0000
     23 H8          2.1474    2.4798   -4.1311 H         1 <0>         0.0000
     24 H9          1.6230    0.8128   -4.4676 H         1 <0>         0.0000
@<TRIPOS>BOND
     1    1    2 2
     2    1   14 1
     3    1   16 1
     4    2    7 1
     5    2    8 1
     6    3    8 2
     7    3    9 1
     8    3   14 1
     9    4    7 1
    10    4   10 2
    11    4   13 1
    12    5   13 1
    13    5   17 1
    14    5   18 1
    15    5   19 1
    16    6   15 1
    17    6   20 1
    18    6   21 1
    19    6   22 1
    20    7   23 1
    21    7   24 1
    22    9   15 1
    23   11   15 2
    24   12   15 2
