@<TRIPOS>MOLECULE
*****
   28    29     0     0     0
SMALL
NO_CHARGES

@<TRIPOS>ATOM
      1 C1          1.8822    2.3079    0.7790 C.2       1 <0>         0.0000
      2 C2          5.0640    3.0255    0.9241 C.3       1 <0>         0.0000
      3 C3          4.9542    3.8338    2.1967 C.3       1 <0>         0.0000
      4 C4          0.7640   -0.7231    0.4908 C.3       1 <0>         0.0000
      5 C5         -1.5855   -0.8495    0.5695 C.3       1 <0>         0.0000
      6 C6          3.7908    3.7712    1.2385 C.3       1 <0>         0.0000
      7 C7         -0.3476   -1.4398    1.2460 C.3       1 <0>         0.0000
      8 C8          0.5916    1.6776    1.3348 C.3       1 <0>         0.0000
      9 N1          2.6231    3.0157    1.6475 N.am      1 <0>         0.0000
     10 N2          0.1880    0.6624    0.3087 N.4       1 <0>         0.0000
     11 O1          2.1398    2.1327   -0.4170 O.2       1 <0>         0.0000
     12 O2         -1.2378    0.5366    0.2632 O.3       1 <0>         0.0000
     13 O3         -0.2233   -1.0625    2.6097 O.3       1 <0>         0.0000
     14 H1          5.6697    3.4059    0.1088 H         1 <0>         0.0000
     15 H2          5.0406    1.9443    1.0111 H         1 <0>         0.0000
     16 H3          4.8698    3.2864    3.1313 H         1 <0>         0.0000
     17 H4          5.4862    4.7764    2.2703 H         1 <0>         0.0000
     18 H5          1.6992   -0.6582    1.0439 H         1 <0>         0.0000
     19 H6          0.9314   -1.1451   -0.5001 H         1 <0>         0.0000
     20 H7         -1.8281   -1.3638   -0.3649 H         1 <0>         0.0000
     21 H8         -2.4588   -0.8062    1.2209 H         1 <0>         0.0000
     22 H9          3.5560    4.6514    0.6469 H         1 <0>         0.0000
     23 H10        -0.2856   -2.5236    1.1035 H         1 <0>         0.0000
     24 H11        -0.2142    2.4142    1.3666 H         1 <0>         0.0000
     25 H12         0.6848    1.1883    2.3034 H         1 <0>         0.0000
     26 H13         2.2746    3.1489    2.5913 H         1 <0>         0.0000
     27 H14         0.5156    1.0632   -0.5939 H         1 <0>         0.0000
     28 H15        -0.8096   -1.6053    3.1621 H         1 <0>         0.0000
@<TRIPOS>BOND
     1    1    8 1
     2    1    9 am
     3    1   11 2
     4    2    3 1
     5    2    6 1
     6    2   14 1
     7    2   15 1
     8    3    6 1
     9    3   16 1
    10    3   17 1
    11    4    7 1
    12    4   10 1
    13    4   18 1
    14    4   19 1
    15    5    7 1
    16    5   12 1
    17    5   20 1
    18    5   21 1
    19    6    9 1
    20    6   22 1
    21    7   13 1
    22    7   23 1
    23    8   10 1
    24    8   24 1
    25    8   25 1
    26    9   26 1
    27   10   12 1
    28   10   27 1
    29   13   28 1
