@<TRIPOS>MOLECULE
*****
   20    19     0     0     0
SMALL
NO_CHARGES

@<TRIPOS>ATOM
      1 C1          0.1445   -1.5683   -0.7749 C.2       1 <0>         0.0000
      2 C2         -0.3703   -2.9933   -0.8474 C.3       1 <0>         0.0000
      3 C3          0.0363    2.9081   -1.6352 C.3       1 <0>         0.0000
      4 C4          0.8294    1.7180    2.7069 C.3       1 <0>         0.0000
      5 N1         -0.7395   -0.6647   -0.1849 N.am      1 <0>         0.0000
      6 O1          1.2402   -1.2187   -1.1822 O.2       1 <0>         0.0000
      7 O2         -1.5723    1.5847    0.8572 O.2       1 <0>         0.0000
      8 O3         -0.1981    1.4991   -1.4053 O.3       1 <0>         0.0000
      9 P1         -0.4446    0.9855    0.0959 P.3       1 <0>         0.0000
     10 S1          1.4267    1.1984    1.0452 S.3       1 <0>         0.0000
     11 H1         -1.3248   -3.0367   -1.3821 H         1 <0>         0.0000
     12 H2         -0.5291   -3.3926    0.1602 H         1 <0>         0.0000
     13 H3          0.3649   -3.6079   -1.3660 H         1 <0>         0.0000
     14 H4          0.1318    3.0201   -2.7149 H         1 <0>         0.0000
     15 H5          0.9610    3.2231   -1.1442 H         1 <0>         0.0000
     16 H6         -0.8088    3.4951   -1.2668 H         1 <0>         0.0000
     17 H7          1.7211    2.0321    3.2540 H         1 <0>         0.0000
     18 H8          0.3564    0.8843    3.2270 H         1 <0>         0.0000
     19 H9          0.1276    2.5468    2.6239 H         1 <0>         0.0000
     20 H10        -1.6284   -1.0000    0.1741 H         1 <0>         0.0000
@<TRIPOS>BOND
     1    1    2 1
     2    1    5 am
     3    1    6 2
     4    2   11 1
     5    2   12 1
     6    2   13 1
     7    3    8 1
     8    3   14 1
     9    3   15 1
    10    3   16 1
    11    4   10 1
    12    4   17 1
    13    4   18 1
    14    4   19 1
    15    5    9 1
    16    5   20 1
    17    7    9 2
    18    8    9 1
    19    9   10 1
