@<TRIPOS>MOLECULE
*****
   25    25     0     0     0
SMALL
NO_CHARGES

@<TRIPOS>ATOM
      1 C1          0.9104    1.0391    3.0201 C.2       1 <0>         0.0000
      2 C2          0.7694    0.1269    2.0343 C.2       1 <0>         0.0000
      3 C3          3.0378   -0.1987    2.5096 C.2       1 <0>         0.0000
      4 C4         -0.8391   -1.6224    1.1873 C.2       1 <0>         0.0000
      5 C5         -2.6206   -3.1711    1.1378 C.3       1 <0>         0.0000
      6 C6          5.7758   -2.8242    2.3731 C.3       1 <0>         0.0000
      7 C7         -0.4691   -0.1465    1.2341 C.3       1 <0>         0.0000
      8 N1          4.2608   -0.6522    2.5190 N.2       1 <0>         0.0000
      9 N2          1.9558   -0.5471    1.7457 N.pl3     1 <0>         0.0000
     10 O1         -0.0335   -2.5264    1.0777 O.2       1 <0>         0.0000
     11 O2          3.5901   -2.5570    0.8781 O.2       1 <0>         0.0000
     12 O3          5.5932   -1.0943    0.3701 O.2       1 <0>         0.0000
     13 O4         -2.1725   -1.7974    1.2416 O.3       1 <0>         0.0000
     14 S1          2.5589    1.0850    3.6308 S.3       1 <0>         0.0000
     15 S2          4.7412   -1.7569    1.3632 S.o2      1 <0>         0.0000
     16 H1          0.1538    1.7073    3.4068 H         1 <0>         0.0000
     17 H2         -3.7077   -3.1231    1.1840 H         1 <0>         0.0000
     18 H3         -2.2212   -3.7595    1.9662 H         1 <0>         0.0000
     19 H4         -2.2892   -3.6046    0.1920 H         1 <0>         0.0000
     20 H5          6.2029   -3.5691    1.6995 H         1 <0>         0.0000
     21 H6          6.5576   -2.2120    2.8224 H         1 <0>         0.0000
     22 H7          5.1533   -3.2961    3.1334 H         1 <0>         0.0000
     23 H8         -0.3116    0.1637    0.1922 H         1 <0>         0.0000
     24 H9         -1.3015    0.4381    1.6262 H         1 <0>         0.0000
     25 H10         1.9969   -1.4034    1.1834 H         1 <0>         0.0000
@<TRIPOS>BOND
     1    1    2 2
     2    1   14 1
     3    1   16 1
     4    2    7 1
     5    2    9 1
     6    3    8 2
     7    3    9 1
     8    3   14 1
     9    4    7 1
    10    4   10 2
    11    4   13 1
    12    5   13 1
    13    5   17 1
    14    5   18 1
    15    5   19 1
    16    6   15 1
    17    6   20 1
    18    6   21 1
    19    6   22 1
    20    7   23 1
    21    7   24 1
    22    8   15 1
    23    9   25 1
    24   11   15 2
    25   12   15 2
