@<TRIPOS>MOLECULE
*****
   18    18     0     0     0
SMALL
NO_CHARGES

@<TRIPOS>ATOM
      1 C1          0.0407   -1.0263   -1.1423 C.1       1 <0>         0.0000
      2 C2          0.0132    1.0214    1.8775 C.2       1 <0>         0.0000
      3 C3          0.4204    1.7518    3.8796 C.2       1 <0>         0.0000
      4 C4         -1.5314    1.0707   -0.0913 C.3       1 <0>         0.0000
      5 C5         -0.0868    0.8827    0.3811 C.3       1 <0>         0.0000
      6 N1         -0.3317   -1.5411   -2.1221 N.1       1 <0>         0.0000
      7 N2          0.5043    2.0516    2.4958 N.2       1 <0>         0.0000
      8 N3         -0.4775    0.0277    2.7043 N.pl3     1 <0>         0.0000
      9 N4         -0.0231    0.3974    3.9904 N.am      1 <0>         0.0000
     10 N5          0.4308   -0.4696    0.0242 N.3       1 <0>         0.0000
     11 O1          0.6687    2.4711    4.8242 O.2       1 <0>         0.0000
     12 H1         -2.1810    0.2921    0.3168 H         1 <0>         0.0000
     13 H2         -1.8914    2.0438    0.2507 H         1 <0>         0.0000
     14 H3         -1.5862    1.0421   -1.1818 H         1 <0>         0.0000
     15 H4          0.5461    1.6615   -0.0550 H         1 <0>         0.0000
     16 H5         -0.2775   -0.9342    2.4358 H         1 <0>         0.0000
     17 H6         -0.6962    0.2234    4.7322 H         1 <0>         0.0000
     18 H7          1.4330   -0.5612    0.1762 H         1 <0>         0.0000
@<TRIPOS>BOND
     1    1    6 3
     2    1   10 1
     3    2    5 1
     4    2    7 2
     5    2    8 1
     6    3    7 1
     7    3    9 am
     8    3   11 2
     9    4    5 1
    10    4   12 1
    11    4   13 1
    12    4   14 1
    13    5   10 1
    14    5   15 1
    15    8    9 1
    16    8   16 1
    17    9   17 1
    18   10   18 1
