@<TRIPOS>MOLECULE
*****
   20    19     0     0     0
SMALL
NO_CHARGES

@<TRIPOS>ATOM
      1 C1         -1.0624   -1.7617    0.6054 C.2       1 <0>         0.0000
      2 C2         -1.3746   -1.4778    2.0551 C.3       1 <0>         0.0000
      3 C3          1.2641    1.3179   -1.8482 C.3       1 <0>         0.0000
      4 C4          1.0203    2.5725    2.3471 C.3       1 <0>         0.0000
      5 N1         -0.5165   -0.7029   -0.1493 N.am      1 <0>         0.0000
      6 O1         -1.2496   -2.8383    0.0625 O.2       1 <0>         0.0000
      7 O2         -1.5539    1.5918    0.8694 O.2       1 <0>         0.0000
      8 O3          0.0115    1.5718   -1.1780 O.3       1 <0>         0.0000
      9 P1         -0.3756    0.9408    0.2550 P.3       1 <0>         0.0000
     10 S1          1.3383    0.9767    1.4877 S.3       1 <0>         0.0000
     11 H1         -2.0840   -0.6496    2.1371 H         1 <0>         0.0000
     12 H2         -0.4673   -1.1861    2.5924 H         1 <0>         0.0000
     13 H3         -1.7929   -2.3805    2.4992 H         1 <0>         0.0000
     14 H4          1.2093    1.8541   -2.7954 H         1 <0>         0.0000
     15 H5          1.4018    0.2485   -2.0389 H         1 <0>         0.0000
     16 H6          2.0982    1.6901   -1.2490 H         1 <0>         0.0000
     17 H7          1.7316    2.6182    3.1738 H         1 <0>         0.0000
     18 H8         -0.0014    2.5873    2.7262 H         1 <0>         0.0000
     19 H9          1.1832    3.4159    1.6750 H         1 <0>         0.0000
     20 H10        -0.4402   -0.9459   -1.1350 H         1 <0>         0.0000
@<TRIPOS>BOND
     1    1    2 1
     2    1    5 am
     3    1    6 2
     4    2   11 1
     5    2   12 1
     6    2   13 1
     7    3    8 1
     8    3   14 1
     9    3   15 1
    10    3   16 1
    11    4   10 1
    12    4   17 1
    13    4   18 1
    14    4   19 1
    15    5    9 1
    16    5   20 1
    17    7    9 2
    18    8    9 1
    19    9   10 1
