@<TRIPOS>MOLECULE
*****
   28    29     0     0     0
SMALL
NO_CHARGES

@<TRIPOS>ATOM
      1 C1          1.9244    1.1327   -0.1210 C.2       1 <0>         0.0000
      2 C2          4.9475   -0.0274   -0.5686 C.3       1 <0>         0.0000
      3 C3          5.5800    0.8496    0.4877 C.3       1 <0>         0.0000
      4 C4         -1.1202    0.8331   -0.9811 C.3       1 <0>         0.0000
      5 C5         -0.3551   -1.4187   -0.8805 C.3       1 <0>         0.0000
      6 C6          4.3600    1.3280   -0.2596 C.3       1 <0>         0.0000
      7 C7         -1.4861   -0.5728   -1.4832 C.3       1 <0>         0.0000
      8 C8          0.7010    1.4096    0.7737 C.3       1 <0>         0.0000
      9 N1          3.1096    1.3960    0.4682 N.am      1 <0>         0.0000
     10 N2         -0.4728    0.5645    0.3641 N.4       1 <0>         0.0000
     11 O1          1.7757    0.7364   -1.2734 O.2       1 <0>         0.0000
     12 O2         -0.1180   -0.8356    0.4367 O.3       1 <0>         0.0000
     13 O3         -1.4829   -0.5365   -2.8889 O.3       1 <0>         0.0000
     14 H1          5.4465   -0.1422   -1.5248 H         1 <0>         0.0000
     15 H2          4.3910   -0.8964   -0.2335 H         1 <0>         0.0000
     16 H3          5.4539    0.5523    1.5251 H         1 <0>         0.0000
     17 H4          6.5213    1.3429    0.2698 H         1 <0>         0.0000
     18 H5         -0.3805    1.2749   -1.6431 H         1 <0>         0.0000
     19 H6         -1.9732    1.4932   -0.8202 H         1 <0>         0.0000
     20 H7         -0.6258   -2.4558   -0.6799 H         1 <0>         0.0000
     21 H8          0.5480   -1.3385   -1.4867 H         1 <0>         0.0000
     22 H9          4.4789    2.1141   -0.9997 H         1 <0>         0.0000
     23 H10        -2.4570   -0.8859   -1.0804 H         1 <0>         0.0000
     24 H11         0.3804    2.4524    0.6850 H         1 <0>         0.0000
     25 H12         0.8896    1.1793    1.8240 H         1 <0>         0.0000
     26 H13         3.1289    1.7650    1.4126 H         1 <0>         0.0000
     27 H14        -1.1846    0.6641    1.0954 H         1 <0>         0.0000
     28 H15        -2.0711   -1.2222   -3.2427 H         1 <0>         0.0000
@<TRIPOS>BOND
     1    1    8 1
     2    1    9 am
     3    1   11 2
     4    2    3 1
     5    2    6 1
     6    2   14 1
     7    2   15 1
     8    3    6 1
     9    3   16 1
    10    3   17 1
    11    4    7 1
    12    4   10 1
    13    4   18 1
    14    4   19 1
    15    5    7 1
    16    5   12 1
    17    5   20 1
    18    5   21 1
    19    6    9 1
    20    6   22 1
    21    7   13 1
    22    7   23 1
    23    8   10 1
    24    8   24 1
    25    8   25 1
    26    9   26 1
    27   10   12 1
    28   10   27 1
    29   13   28 1
