@<TRIPOS>MOLECULE
*****
   13    12     0     0     0
SMALL
NO_CHARGES

@<TRIPOS>ATOM
      1 C1         -1.2503    2.6020   -2.0818 C.1       1 <0>         0.0000
      2 C2         -0.1722    0.2441    0.0080 C.2       1 <0>         0.0000
      3 C3          0.3787   -1.2377    1.7729 C.3       1 <0>         0.0000
      4 C4          0.0810    0.4798   -1.5076 C.3       1 <0>         0.0000
      5 N1         -0.6345    1.6546   -1.9035 N.1       1 <0>         0.0000
      6 O1         -0.8652    0.9713    0.6775 O.2       1 <0>         0.0000
      7 O2          0.4895   -0.8413    0.3624 O.3       1 <0>         0.0000
      8 H1         -1.8258    3.4969   -2.2725 H         1 <0>         0.0000
      9 H2          0.9830   -2.1378    1.8538 H         1 <0>         0.0000
     10 H3         -0.6669   -1.4366    2.0084 H         1 <0>         0.0000
     11 H4          0.7689   -0.4374    2.4019 H         1 <0>         0.0000
     12 H5         -0.2793   -0.3606   -2.1073 H         1 <0>         0.0000
     13 H6          1.1431    0.6385   -1.7140 H         1 <0>         0.0000
@<TRIPOS>BOND
     1    1    5 3
     2    1    8 1
     3    2    4 1
     4    2    6 2
     5    2    7 1
     6    3    7 1
     7    3    9 1
     8    3   10 1
     9    3   11 1
    10    4    5 1
    11    4   12 1
    12    4   13 1
