@<TRIPOS>MOLECULE
*****
   20    20     0     0     0
SMALL
NO_CHARGES

@<TRIPOS>ATOM
      1 C1          1.6870   -1.2257   -0.0520 C.ar      1 <0>         0.0000
      2 C2          2.7919   -1.7650    2.0179 C.ar      1 <0>         0.0000
      3 C3          0.5529   -0.8164    0.6465 C.ar      1 <0>         0.0000
      4 C4          1.6723   -1.3479    2.7330 C.ar      1 <0>         0.0000
      5 C5          2.8210   -1.7160    0.6147 C.ar      1 <0>         0.0000
      6 C6          0.5251   -0.8938    2.0550 C.ar      1 <0>         0.0000
      7 C7          3.9226   -3.7028   -0.5015 C.3       1 <0>         0.0000
      8 C8          4.0248   -2.2051   -0.1565 C.3       1 <0>         0.0000
      9 N1         -0.5665   -0.5038    2.8525 N.2       1 <0>         0.0000
     10 O1         -3.0446   -0.1758    3.2550 O.2       1 <0>         0.0000
     11 S1         -2.0204   -0.7275    2.3349 S.o       1 <0>         0.0000
     12 H1          1.6992   -1.1459   -1.1370 H         1 <0>         0.0000
     13 H2          3.6654   -2.1228    2.5587 H         1 <0>         0.0000
     14 H3         -0.2903   -0.3955    0.1053 H         1 <0>         0.0000
     15 H4          1.6560   -1.3751    3.8183 H         1 <0>         0.0000
     16 H5          3.8448   -4.3084    0.4074 H         1 <0>         0.0000
     17 H6          4.8041   -4.0353   -1.0599 H         1 <0>         0.0000
     18 H7          3.0355   -3.9035   -1.1112 H         1 <0>         0.0000
     19 H8          4.1301   -1.6271   -1.0813 H         1 <0>         0.0000
     20 H9          4.9338   -2.0297    0.4294 H         1 <0>         0.0000
@<TRIPOS>BOND
     1    1    3 ar
     2    1    5 ar
     3    1   12 1
     4    2    4 ar
     5    2    5 ar
     6    2   13 1
     7    3    6 ar
     8    3   14 1
     9    4    6 ar
    10    4   15 1
    11    5    8 1
    12    6    9 1
    13    7    8 1
    14    7   16 1
    15    7   17 1
    16    7   18 1
    17    8   19 1
    18    8   20 1
    19    9   11 2
    20   10   11 2
