@<TRIPOS>MOLECULE
*****
   15    14     0     0     0
SMALL
NO_CHARGES

@<TRIPOS>ATOM
      1 C1          5.3869   -4.4908    2.9247 C.1       1 <0>         0.0000
      2 C2         -0.3171   -3.6168    4.3945 C.3       1 <0>         0.0000
      3 C3          4.1511   -2.7472    4.2260 C.3       1 <0>         0.0000
      4 C4          3.0245   -2.3257    3.2784 C.3       1 <0>         0.0000
      5 N1          5.1877   -3.4910    3.5633 N.2       1 <0>         0.0000
      6 S1          5.8083   -5.7717    2.0874 S.2       1 <0>         0.0000
      7 S2          1.2149   -4.6060    4.2060 S.3       1 <0>         0.0000
      8 S3          2.0991   -3.7247    2.5314 S.3       1 <0>         0.0000
      9 H1         -0.8629   -4.0508    5.2378 H         1 <0>         0.0000
     10 H2         -0.9284   -3.6836    3.4929 H         1 <0>         0.0000
     11 H3         -0.0887   -2.5719    4.6162 H         1 <0>         0.0000
     12 H4          3.7399   -3.3493    5.0445 H         1 <0>         0.0000
     13 H5          4.5966   -1.8489    4.6649 H         1 <0>         0.0000
     14 H6          2.3306   -1.6716    3.8149 H         1 <0>         0.0000
     15 H7          3.4287   -1.7711    2.4254 H         1 <0>         0.0000
@<TRIPOS>BOND
     1    1    5 2
     2    1    6 2
     3    2    7 1
     4    2    9 1
     5    2   10 1
     6    2   11 1
     7    3    4 1
     8    3    5 1
     9    3   12 1
    10    3   13 1
    11    4    8 1
    12    4   14 1
    13    4   15 1
    14    7    8 1
