@<TRIPOS>MOLECULE
*****
   18    18     0     0     0
SMALL
NO_CHARGES

@<TRIPOS>ATOM
      1 C1          1.8813   -1.1379   -0.2193 C.ar      1 <0>         0.0000
      2 C2          2.7720   -1.7558    1.9743 C.ar      1 <0>         0.0000
      3 C3          0.7877   -0.5386    0.4003 C.ar      1 <0>         0.0000
      4 C4          1.6707   -1.1623    2.5807 C.ar      1 <0>         0.0000
      5 C5          2.8648   -1.7394    0.5748 C.ar      1 <0>         0.0000
      6 C6          0.6808   -0.5522    1.7974 C.ar      1 <0>         0.0000
      7 N1         -1.7982   -1.1418    2.7817 N.2       1 <0>         0.0000
      8 N2          4.0180   -2.3568   -0.0682 N.pl3     1 <0>         0.0000
      9 O1          4.0877   -2.3310   -1.3085 O.3       1 <0>         0.0000
     10 O2          4.8827   -2.8836    0.6522 O.2       1 <0>         0.0000
     11 O3         -1.2293    1.2223    1.7059 O.2       1 <0>         0.0000
     12 O4         -0.3713    0.4668    3.9790 O.2       1 <0>         0.0000
     13 S1         -0.7996    0.1275    2.6039 S.o2      1 <0>         0.0000
     14 Cl1        -2.4922   -1.6225    1.1757 Cl        1 <0>         0.0000
     15 H1          1.9903   -1.1413   -1.2977 H         1 <0>         0.0000
     16 H2          3.5566   -2.2256    2.5559 H         1 <0>         0.0000
     17 H3          0.0159   -0.0472   -0.1820 H         1 <0>         0.0000
     18 H4          1.5619   -1.1524    3.6606 H         1 <0>         0.0000
@<TRIPOS>BOND
     1    1    3 ar
     2    1    5 ar
     3    1   15 1
     4    2    4 ar
     5    2    5 ar
     6    2   16 1
     7    3    6 ar
     8    3   17 1
     9    4    6 ar
    10    4   18 1
    11    5    8 1
    12    6   13 1
    13    7   13 1
    14    7   14 1
    15    8    9 1
    16    8   10 2
    17   11   13 2
    18   12   13 2
