@<TRIPOS>MOLECULE
*****
   25    25     0     0     0
SMALL
NO_CHARGES

@<TRIPOS>ATOM
      1 C1          4.7534    0.4763   -4.6464 C.2       1 <0>         0.0000
      2 C2          4.2584   -0.2041   -3.5690 C.2       1 <0>         0.0000
      3 C3          6.1698   -1.2989   -3.7814 C.2       1 <0>         0.0000
      4 C4          1.9197   -1.0472   -3.2131 C.2       1 <0>         0.0000
      5 C5         -0.0999   -2.0370   -2.4878 C.3       1 <0>         0.0000
      6 C6          9.6394   -1.8956   -4.6017 C.3       1 <0>         0.0000
      7 C7          2.9405    0.0402   -2.8995 C.3       1 <0>         0.0000
      8 N1          5.0789   -1.2037   -3.0778 N.2       1 <0>         0.0000
      9 N2          7.1478   -2.2819   -3.5590 N.pl3     1 <0>         0.0000
     10 O1          1.9377   -1.7752   -4.1836 O.2       1 <0>         0.0000
     11 O2          8.7327   -0.4220   -2.5962 O.2       1 <0>         0.0000
     12 O3          9.1758   -2.9105   -2.1847 O.2       1 <0>         0.0000
     13 O4          0.9505   -1.0705   -2.2686 O.3       1 <0>         0.0000
     14 S1          6.2912   -0.1779   -5.1211 S.3       1 <0>         0.0000
     15 S2          8.7381   -1.8120   -3.0467 S.o2      1 <0>         0.0000
     16 H1          4.3131    1.3075   -5.1811 H         1 <0>         0.0000
     17 H2         -0.7813   -1.9207   -1.6453 H         1 <0>         0.0000
     18 H3          0.3147   -3.0472   -2.5131 H         1 <0>         0.0000
     19 H4         -0.6128   -1.8346   -3.4310 H         1 <0>         0.0000
     20 H5         10.6764   -1.6441   -4.3715 H         1 <0>         0.0000
     21 H6          9.5571   -2.9098   -4.9912 H         1 <0>         0.0000
     22 H7          9.2155   -1.1654   -5.2917 H         1 <0>         0.0000
     23 H8          3.0646    0.1047   -1.8154 H         1 <0>         0.0000
     24 H9          2.5121    0.9915   -3.2317 H         1 <0>         0.0000
     25 H10         6.8103   -2.9904   -2.9050 H         1 <0>         0.0000
@<TRIPOS>BOND
     1    1    2 2
     2    1   14 1
     3    1   16 1
     4    2    7 1
     5    2    8 1
     6    3    8 2
     7    3    9 1
     8    3   14 1
     9    4    7 1
    10    4   10 2
    11    4   13 1
    12    5   13 1
    13    5   17 1
    14    5   18 1
    15    5   19 1
    16    6   15 1
    17    6   20 1
    18    6   21 1
    19    6   22 1
    20    7   23 1
    21    7   24 1
    22    9   15 1
    23    9   25 1
    24   11   15 2
    25   12   15 2
