@<TRIPOS>MOLECULE
*****
   20    19     0     0     0
SMALL
NO_CHARGES

@<TRIPOS>ATOM
      1 C1         -1.5658   -0.3167   -0.2310 C.2       1 <0>         0.0000
      2 C2          2.3838    1.1297    0.6225 C.3       1 <0>         0.0000
      3 C3          1.2597   -2.5500   -1.3492 C.3       1 <0>         0.0000
      4 C4         -2.7541    0.3527    0.5551 C.3       1 <0>         0.0000
      5 N1         -0.5022    0.5187   -0.4465 N.am      1 <0>         0.0000
      6 O1         -1.6105   -1.4872   -0.5457 O.2       1 <0>         0.0000
      7 O2          0.7733    0.0949   -2.7942 O.2       1 <0>         0.0000
      8 O3          1.9249    1.1793   -0.7505 O.3       1 <0>         0.0000
      9 O4          1.3839   -1.2806   -0.6447 O.3       1 <0>         0.0000
     10 P1          0.9191    0.0811   -1.3305 P.3       1 <0>         0.0000
     11 Cl1        -2.1699    0.6878    2.2349 Cl        1 <0>         0.0000
     12 Cl2        -3.2179    1.9127   -0.2368 Cl        1 <0>         0.0000
     13 Cl3        -4.1520   -0.7305    0.6034 Cl        1 <0>         0.0000
     14 H1          2.9974    2.0189    0.7645 H         1 <0>         0.0000
     15 H2          2.9766    0.2277    0.7844 H         1 <0>         0.0000
     16 H3          1.5354    1.1450    1.3134 H         1 <0>         0.0000
     17 H4          1.9537   -3.2278   -0.8525 H         1 <0>         0.0000
     18 H5          1.5311   -2.4231   -2.3983 H         1 <0>         0.0000
     19 H6          0.2332   -2.9037   -1.2563 H         1 <0>         0.0000
     20 H7         -0.6400    1.5127   -0.2853 H         1 <0>         0.0000
@<TRIPOS>BOND
     1    1    4 1
     2    1    5 am
     3    1    6 2
     4    2    8 1
     5    2   14 1
     6    2   15 1
     7    2   16 1
     8    3    9 1
     9    3   17 1
    10    3   18 1
    11    3   19 1
    12    4   11 1
    13    4   12 1
    14    4   13 1
    15    5   10 1
    16    5   20 1
    17    7   10 2
    18    8   10 1
    19    9   10 1
