@<TRIPOS>MOLECULE
*****
   24    24     0     0     0
SMALL
NO_CHARGES

@<TRIPOS>ATOM
      1 C1          4.3519    1.0982   -5.1497 C.2       1 <0>         0.0000
      2 C2          3.9606    0.2571   -4.1494 C.2       1 <0>         0.0000
      3 C3          5.9736   -0.6864   -4.4754 C.2       1 <0>         0.0000
      4 C4          1.8449   -0.9679   -3.4872 C.2       1 <0>         0.0000
      5 C5          1.1466   -2.7438   -4.8699 C.3       1 <0>         0.0000
      6 C6          9.1840   -0.0047   -3.8723 C.3       1 <0>         0.0000
      7 C7          2.6429    0.3229   -3.4246 C.3       1 <0>         0.0000
      8 N1          4.8511   -0.7187   -3.7697 N.2       1 <0>         0.0000
      9 N2          6.9838   -1.5530   -4.2725 N.2       1 <0>         0.0000
     10 O1          1.2709   -1.4843   -2.5436 O.2       1 <0>         0.0000
     11 O2          8.4104   -0.7186   -6.2885 O.2       1 <0>         0.0000
     12 O3          9.2609   -2.5076   -4.7126 O.2       1 <0>         0.0000
     13 O4          1.8023   -1.4739   -4.7414 O.3       1 <0>         0.0000
     14 S1          5.9384    0.6500   -5.7328 S.3       1 <0>         0.0000
     15 S2          8.4402   -1.2985   -4.9192 S.o2      1 <0>         0.0000
     16 H1          3.7916    1.9119   -5.5943 H         1 <0>         0.0000
     17 H2          1.2473   -3.0188   -5.9206 H         1 <0>         0.0000
     18 H3          0.0914   -2.6681   -4.5901 H         1 <0>         0.0000
     19 H4          1.6334   -3.4871   -4.2335 H         1 <0>         0.0000
     20 H5         10.1851    0.2016   -4.2580 H         1 <0>         0.0000
     21 H6          8.5603    0.8902   -3.9293 H         1 <0>         0.0000
     22 H7          9.2304   -0.3833   -2.8500 H         1 <0>         0.0000
     23 H8          2.7855    0.5380   -2.3619 H         1 <0>         0.0000
     24 H9          2.0228    1.1194   -3.8528 H         1 <0>         0.0000
@<TRIPOS>BOND
     1    1    2 2
     2    1   14 1
     3    1   16 1
     4    2    7 1
     5    2    8 1
     6    3    8 2
     7    3    9 1
     8    3   14 1
     9    4    7 1
    10    4   10 2
    11    4   13 1
    12    5   13 1
    13    5   17 1
    14    5   18 1
    15    5   19 1
    16    6   15 1
    17    6   20 1
    18    6   21 1
    19    6   22 1
    20    7   23 1
    21    7   24 1
    22    9   15 1
    23   11   15 2
    24   12   15 2
