@<TRIPOS>MOLECULE
*****
   43    43     0     0     0
SMALL
NO_CHARGES

@<TRIPOS>ATOM
      1 C1          0.8156   -6.1000   -0.6454 C.2       1 <0>         0.0000
      2 C2          0.5223   -4.7217   -0.6041 C.2       1 <0>         0.0000
      3 C3          2.0460   -6.2624   -0.0177 C.2       1 <0>         0.0000
      4 C4          1.5721   -4.0654    0.0544 C.2       1 <0>         0.0000
      5 C5          1.6299   -2.6285    0.3334 C.2       1 <0>         0.0000
      6 C6          3.7974   -4.8951    1.0696 C.3       1 <0>         0.0000
      7 C7         -2.0321    0.9463   -0.6224 C.3       1 <0>         0.0000
      8 C8         -1.5441   -1.0087   -1.9983 C.3       1 <0>         0.0000
      9 C9          1.1598    0.9969    2.0930 C.3       1 <0>         0.0000
     10 C10        -0.8295   -0.4182    2.2954 C.3       1 <0>         0.0000
     11 C11         1.1656    2.0332   -1.0657 C.3       1 <0>         0.0000
     12 C12         2.6025    0.0973   -1.5706 C.3       1 <0>         0.0000
     13 N1          0.6704   -1.9446   -0.3272 N.2       1 <0>         0.0000
     14 N2          2.5034   -5.0454    0.4088 N.pl3     1 <0>         0.0000
     15 N3         -1.2419   -0.2756   -0.7649 N.pl3     1 <0>         0.0000
     16 N4          0.0955    0.2757    1.3897 N.pl3     1 <0>         0.0000
     17 N5          1.3930    0.5986   -0.9193 N.pl3     1 <0>         0.0000
     18 P1          0.3133   -0.3943   -0.1273 P.3       1 <0>         0.0000
     19 S1          2.7746   -1.9296    1.3868 S.2       1 <0>         0.0000
     20 H1          0.2136   -6.8914   -1.0733 H         1 <0>         0.0000
     21 H2         -0.3557   -4.2188   -0.9823 H         1 <0>         0.0000
     22 H3          2.6323   -7.1562    0.1510 H         1 <0>         0.0000
     23 H4          4.4130   -4.1589    0.5516 H         1 <0>         0.0000
     24 H5          3.6745   -4.5632    2.1008 H         1 <0>         0.0000
     25 H6          4.2944   -5.8681    1.0470 H         1 <0>         0.0000
     26 H7         -1.7897    1.4488    0.3143 H         1 <0>         0.0000
     27 H8         -3.0962    0.6825   -0.6053 H         1 <0>         0.0000
     28 H9         -1.8721    1.6469   -1.4563 H         1 <0>         0.0000
     29 H10        -0.9793   -1.9390   -2.0183 H         1 <0>         0.0000
     30 H11        -1.3001   -0.4167   -2.8938 H         1 <0>         0.0000
     31 H12        -2.6148   -1.2416   -2.0216 H         1 <0>         0.0000
     32 H13         1.9406    1.2995    1.3980 H         1 <0>         0.0000
     33 H14         1.6262    0.3598    2.8509 H         1 <0>         0.0000
     34 H15         0.7336    1.8895    2.5699 H         1 <0>         0.0000
     35 H16        -1.6213   -0.9063    1.7256 H         1 <0>         0.0000
     36 H17        -1.2869    0.3108    2.9745 H         1 <0>         0.0000
     37 H18        -0.3007   -1.1750    2.8889 H         1 <0>         0.0000
     38 H19         0.3325    2.3623   -0.4439 H         1 <0>         0.0000
     39 H20         0.9468    2.2954   -2.1101 H         1 <0>         0.0000
     40 H21         2.0560    2.5928   -0.7504 H         1 <0>         0.0000
     41 H22         2.6223   -0.9900   -1.5451 H         1 <0>         0.0000
     42 H23         3.5000    0.4699   -1.0619 H         1 <0>         0.0000
     43 H24         2.6201    0.4250   -2.6184 H         1 <0>         0.0000
@<TRIPOS>BOND
     1    1    2 1
     2    1    3 2
     3    1   20 1
     4    2    4 2
     5    2   21 1
     6    3   14 1
     7    3   22 1
     8    4    5 1
     9    4   14 1
    10    5   13 1
    11    5   19 2
    12    6   14 1
    13    6   23 1
    14    6   24 1
    15    6   25 1
    16    7   15 1
    17    7   26 1
    18    7   27 1
    19    7   28 1
    20    8   15 1
    21    8   29 1
    22    8   30 1
    23    8   31 1
    24    9   16 1
    25    9   32 1
    26    9   33 1
    27    9   34 1
    28   10   16 1
    29   10   35 1
    30   10   36 1
    31   10   37 1
    32   11   17 1
    33   11   38 1
    34   11   39 1
    35   11   40 1
    36   12   17 1
    37   12   41 1
    38   12   42 1
    39   12   43 1
    40   13   18 2
    41   15   18 1
    42   16   18 1
    43   17   18 1
