@<TRIPOS>MOLECULE
*****
   24    24     0     0     0
SMALL
NO_CHARGES

@<TRIPOS>ATOM
      1 C1          3.7186    1.6528   -4.5313 C.2       1 <0>         0.0000
      2 C2          3.1843    0.6702   -3.7480 C.2       1 <0>         0.0000
      3 C3          5.0860   -0.4190   -4.2397 C.2       1 <0>         0.0000
      4 C4          2.1674    0.3427   -1.5513 C.2       1 <0>         0.0000
      5 C5          2.8163   -1.5853   -0.3294 C.3       1 <0>         0.0000
      6 C6          4.5057   -3.5401   -3.8255 C.3       1 <0>         0.0000
      7 C7          1.8776    0.7522   -2.9861 C.3       1 <0>         0.0000
      8 N1          3.9268   -0.4776   -3.5993 N.2       1 <0>         0.0000
      9 N2          6.0784   -1.3152   -4.3299 N.2       1 <0>         0.0000
     10 O1          2.5218    1.1058   -0.6705 O.2       1 <0>         0.0000
     11 O2          5.8474   -2.3056   -1.9135 O.2       1 <0>         0.0000
     12 O3          7.1459   -3.4968   -3.7190 O.2       1 <0>         0.0000
     13 O4          2.0424   -0.9942   -1.3979 O.3       1 <0>         0.0000
     14 S1          5.2846    1.1356   -5.1380 S.3       1 <0>         0.0000
     15 S2          6.0074   -2.6274   -3.3545 S.o2      1 <0>         0.0000
     16 H1          3.3129    2.6316   -4.7529 H         1 <0>         0.0000
     17 H2          2.4029   -2.5853   -0.1848 H         1 <0>         0.0000
     18 H3          2.7268   -0.9959    0.5858 H         1 <0>         0.0000
     19 H4          3.8577   -1.6519   -0.6583 H         1 <0>         0.0000
     20 H5          4.4750   -4.4376   -3.2031 H         1 <0>         0.0000
     21 H6          3.6459   -2.8957   -3.6410 H         1 <0>         0.0000
     22 H7          4.5904   -3.8066   -4.8809 H         1 <0>         0.0000
     23 H8          1.4876    1.7717   -3.0012 H         1 <0>         0.0000
     24 H9          1.1427    0.0642   -3.4177 H         1 <0>         0.0000
@<TRIPOS>BOND
     1    1    2 2
     2    1   14 1
     3    1   16 1
     4    2    7 1
     5    2    8 1
     6    3    8 2
     7    3    9 1
     8    3   14 1
     9    4    7 1
    10    4   10 2
    11    4   13 1
    12    5   13 1
    13    5   17 1
    14    5   18 1
    15    5   19 1
    16    6   15 1
    17    6   20 1
    18    6   21 1
    19    6   22 1
    20    7   23 1
    21    7   24 1
    22    9   15 1
    23   11   15 2
    24   12   15 2
