@<TRIPOS>MOLECULE
*****
   43    43     0     0     0
SMALL
NO_CHARGES

@<TRIPOS>ATOM
      1 C1         -0.3839   -6.3790    1.4377 C.2       1 <0>         0.0000
      2 C2          0.4920   -5.2800    1.5576 C.2       1 <0>         0.0000
      3 C3         -1.4639   -5.9491    0.6747 C.2       1 <0>         0.0000
      4 C4         -0.0602   -4.1970    0.8634 C.2       1 <0>         0.0000
      5 C5          0.5017   -2.8533    0.7187 C.2       1 <0>         0.0000
      6 C6         -2.2417   -3.9004   -0.4771 C.3       1 <0>         0.0000
      7 C7         -1.6952    1.5350   -0.8746 C.3       1 <0>         0.0000
      8 C8         -1.8409   -0.5514   -2.1434 C.3       1 <0>         0.0000
      9 C9         -0.6036    0.3231    2.1150 C.3       1 <0>         0.0000
     10 C10         1.6647    0.9814    1.4544 C.3       1 <0>         0.0000
     11 C11         1.6247    1.1085   -1.9926 C.3       1 <0>         0.0000
     12 C12         2.4701   -1.1798   -1.6272 C.3       1 <0>         0.0000
     13 N1         -0.1472   -2.0378   -0.1417 N.2       1 <0>         0.0000
     14 N2         -1.2751   -4.6395    0.3248 N.pl3     1 <0>         0.0000
     15 N3         -1.2588    0.1478   -0.9983 N.pl3     1 <0>         0.0000
     16 N4          0.3481    0.5164    1.0125 N.pl3     1 <0>         0.0000
     17 N5          1.4075   -0.2019   -1.3864 N.pl3     1 <0>         0.0000
     18 P1          0.1520   -0.4657   -0.3263 P.3       1 <0>         0.0000
     19 S1          1.8965   -2.4407    1.6120 S.2       1 <0>         0.0000
     20 H1         -0.2569   -7.3700    1.8540 H         1 <0>         0.0000
     21 H2          1.4352   -5.2362    2.0832 H         1 <0>         0.0000
     22 H3         -2.3544   -6.4780    0.3598 H         1 <0>         0.0000
     23 H4         -2.4865   -2.9474   -0.0090 H         1 <0>         0.0000
     24 H5         -1.8466   -3.6974   -1.4746 H         1 <0>         0.0000
     25 H6         -3.1437   -4.5111   -0.5638 H         1 <0>         0.0000
     26 H7         -1.1663    2.0273   -0.0593 H         1 <0>         0.0000
     27 H8         -2.7715    1.5658   -0.6624 H         1 <0>         0.0000
     28 H9         -1.5198    2.0992   -1.8033 H         1 <0>         0.0000
     29 H10        -1.4827   -1.5787   -2.1725 H         1 <0>         0.0000
     30 H11        -1.5788   -0.0546   -3.0892 H         1 <0>         0.0000
     31 H12        -2.9339   -0.5679   -2.0527 H         1 <0>         0.0000
     32 H13        -1.5751    0.0117    1.7262 H         1 <0>         0.0000
     33 H14        -0.7347    1.2706    2.6503 H         1 <0>         0.0000
     34 H15        -0.2404   -0.4406    2.8137 H         1 <0>         0.0000
     35 H16         2.3754    0.9532    0.6296 H         1 <0>         0.0000
     36 H17         2.0566    0.3438    2.2531 H         1 <0>         0.0000
     37 H18         1.5767    2.0164    1.8090 H         1 <0>         0.0000
     38 H19         0.8105    1.7910   -1.7477 H         1 <0>         0.0000
     39 H20         1.6781    1.0153   -3.0849 H         1 <0>         0.0000
     40 H21         2.5615    1.5621   -1.6409 H         1 <0>         0.0000
     41 H22         2.1613   -2.1652   -1.2858 H         1 <0>         0.0000
     42 H23         3.3931   -0.9109   -1.0988 H         1 <0>         0.0000
     43 H24         2.6712   -1.2233   -2.7048 H         1 <0>         0.0000
@<TRIPOS>BOND
     1    1    2 1
     2    1    3 2
     3    1   20 1
     4    2    4 2
     5    2   21 1
     6    3   14 1
     7    3   22 1
     8    4    5 1
     9    4   14 1
    10    5   13 1
    11    5   19 2
    12    6   14 1
    13    6   23 1
    14    6   24 1
    15    6   25 1
    16    7   15 1
    17    7   26 1
    18    7   27 1
    19    7   28 1
    20    8   15 1
    21    8   29 1
    22    8   30 1
    23    8   31 1
    24    9   16 1
    25    9   32 1
    26    9   33 1
    27    9   34 1
    28   10   16 1
    29   10   35 1
    30   10   36 1
    31   10   37 1
    32   11   17 1
    33   11   38 1
    34   11   39 1
    35   11   40 1
    36   12   17 1
    37   12   41 1
    38   12   42 1
    39   12   43 1
    40   13   18 2
    41   15   18 1
    42   16   18 1
    43   17   18 1
