@<TRIPOS>MOLECULE
*****
   43    43     0     0     0
SMALL
NO_CHARGES

@<TRIPOS>ATOM
      1 C1         -0.8314   -6.3493    1.4241 C.2       1 <0>         0.0000
      2 C2          0.0847   -5.3193    1.7227 C.2       1 <0>         0.0000
      3 C3         -1.6335   -5.8842    0.3879 C.2       1 <0>         0.0000
      4 C4         -0.1652   -4.2427    0.8633 C.2       1 <0>         0.0000
      5 C5          0.5402   -2.9614    0.8141 C.2       1 <0>         0.0000
      6 C6         -1.8916   -3.8586   -1.0118 C.3       1 <0>         0.0000
      7 C7         -0.7260    1.4765   -1.4982 C.3       1 <0>         0.0000
      8 C8         -0.7421   -0.6739   -2.6629 C.3       1 <0>         0.0000
      9 C9         -0.5885    0.3840    1.7260 C.3       1 <0>         0.0000
     10 C10         1.8272    0.8047    1.6732 C.3       1 <0>         0.0000
     11 C11         2.7102    0.7104   -1.6526 C.3       1 <0>         0.0000
     12 C12         3.1972   -1.6183   -1.0007 C.3       1 <0>         0.0000
     13 N1          0.2168   -2.1551   -0.2213 N.2       1 <0>         0.0000
     14 N2         -1.2376   -4.6198    0.0448 N.pl3     1 <0>         0.0000
     15 N3         -0.4184    0.0510   -1.4344 N.pl3     1 <0>         0.0000
     16 N4          0.6350    0.4220    0.9135 N.pl3     1 <0>         0.0000
     17 N5          2.2130   -0.5374   -1.0801 N.pl3     1 <0>         0.0000
     18 P1          0.7035   -0.6282   -0.3856 P.3       1 <0>         0.0000
     19 S1          1.6894   -2.6040    2.0244 S.2       1 <0>         0.0000
     20 H1         -0.9103   -7.3181    1.9004 H         1 <0>         0.0000
     21 H2          0.8611   -5.3177    2.4743 H         1 <0>         0.0000
     22 H3         -2.4595   -6.3586   -0.1262 H         1 <0>         0.0000
     23 H4         -2.1539   -2.8596   -0.6650 H         1 <0>         0.0000
     24 H5         -1.2376   -3.7559   -1.8803 H         1 <0>         0.0000
     25 H6         -2.7966   -4.3972   -1.3035 H         1 <0>         0.0000
     26 H7         -0.3887    1.9779   -0.5917 H         1 <0>         0.0000
     27 H8         -1.8106    1.6153   -1.5915 H         1 <0>         0.0000
     28 H9         -0.2502    1.9559   -2.3672 H         1 <0>         0.0000
     29 H10        -0.5012   -1.7288   -2.5457 H         1 <0>         0.0000
     30 H11        -0.1841   -0.2729   -3.5220 H         1 <0>         0.0000
     31 H12        -1.8145   -0.5846   -2.8749 H         1 <0>         0.0000
     32 H13        -1.4487    0.1311    1.1032 H         1 <0>         0.0000
     33 H14        -0.7612    1.3728    2.1667 H         1 <0>         0.0000
     34 H15        -0.5005   -0.3595    2.5279 H         1 <0>         0.0000
     35 H16         2.7250    0.6526    1.0758 H         1 <0>         0.0000
     36 H17         1.9245    0.1981    2.5790 H         1 <0>         0.0000
     37 H18         1.7552    1.8673    1.9389 H         1 <0>         0.0000
     38 H19         1.9367    1.4788   -1.6444 H         1 <0>         0.0000
     39 H20         3.0259    0.5511   -2.6917 H         1 <0>         0.0000
     40 H21         3.5708    1.0939   -1.0875 H         1 <0>         0.0000
     41 H22         2.7124   -2.5509   -0.7211 H         1 <0>         0.0000
     42 H23         3.9738   -1.4023   -0.2567 H         1 <0>         0.0000
     43 H24         3.6652   -1.7419   -1.9852 H         1 <0>         0.0000
@<TRIPOS>BOND
     1    1    2 1
     2    1    3 2
     3    1   20 1
     4    2    4 2
     5    2   21 1
     6    3   14 1
     7    3   22 1
     8    4    5 1
     9    4   14 1
    10    5   13 1
    11    5   19 2
    12    6   14 1
    13    6   23 1
    14    6   24 1
    15    6   25 1
    16    7   15 1
    17    7   26 1
    18    7   27 1
    19    7   28 1
    20    8   15 1
    21    8   29 1
    22    8   30 1
    23    8   31 1
    24    9   16 1
    25    9   32 1
    26    9   33 1
    27    9   34 1
    28   10   16 1
    29   10   35 1
    30   10   36 1
    31   10   37 1
    32   11   17 1
    33   11   38 1
    34   11   39 1
    35   11   40 1
    36   12   17 1
    37   12   41 1
    38   12   42 1
    39   12   43 1
    40   13   18 2
    41   15   18 1
    42   16   18 1
    43   17   18 1
