@<TRIPOS>MOLECULE
*****
   56    58     0     0     0
SMALL
NO_CHARGES

@<TRIPOS>ATOM
      1 C1          5.3664    2.0138   -1.0745 C.ar      1 <0>         0.0000
      2 C2          7.1365    1.1275   -2.4754 C.ar      1 <0>         0.0000
      3 C3          6.2370    3.0127   -0.6205 C.ar      1 <0>         0.0000
      4 C4          8.0007    2.1204   -2.0233 C.ar      1 <0>         0.0000
      5 C5          5.8174    1.0702   -2.0039 C.ar      1 <0>         0.0000
      6 C6          7.5453    3.0632   -1.0946 C.ar      1 <0>         0.0000
      7 C7         -3.4556   -2.7582   -5.6690 C.3       1 <0>         0.0000
      8 C8         -3.3409   -1.6769   -4.5882 C.3       1 <0>         0.0000
      9 C9         -2.1370   -3.5288   -5.7989 C.3       1 <0>         0.0000
     10 C10        -2.8805   -2.2586   -3.2548 C.3       1 <0>         0.0000
     11 C11        -1.6910   -4.1022   -4.4572 C.3       1 <0>         0.0000
     12 C12         1.2095   -3.5720   -0.8766 C.3       1 <0>         0.0000
     13 C13         0.5282   -3.6113   -2.2444 C.3       1 <0>         0.0000
     14 C14         1.5738   -1.3933   -2.3358 C.3       1 <0>         0.0000
     15 C15         0.6902   -0.1748   -2.6217 C.3       1 <0>         0.0000
     16 C16         3.8709   -2.5057   -2.4897 C.3       1 <0>         0.0000
     17 C17         3.0940   -1.0058   -4.3380 C.3       1 <0>         0.0000
     18 C18        -1.0027   -3.4872   -2.1144 C.3       1 <0>         0.0000
     19 C19         3.6926   -0.0333   -2.0943 C.3       1 <0>         0.0000
     20 C20         3.0553   -1.2404   -2.8119 C.3       1 <0>         0.0000
     21 N1         -1.5759   -3.0051   -3.4195 N.4       1 <0>         0.0000
     22 O1          1.0023   -2.5309   -3.0505 O.3       1 <0>         0.0000
     23 O2          5.0470    0.0502   -2.5136 O.3       1 <0>         0.0000
     24 S1          1.3960   -1.7966   -0.5195 S.3       1 <0>         0.0000
     25 Cl1         8.6320    4.3156   -0.5245 Cl        1 <0>         0.0000
     26 H1          4.3538    1.9917   -0.6883 H         1 <0>         0.0000
     27 H2          7.4714    0.3873   -3.1960 H         1 <0>         0.0000
     28 H3          5.8918    3.7462    0.1013 H         1 <0>         0.0000
     29 H4          9.0219    2.1653   -2.3878 H         1 <0>         0.0000
     30 H5         -3.7203   -2.3031   -6.6267 H         1 <0>         0.0000
     31 H6         -4.2655   -3.4523   -5.4131 H         1 <0>         0.0000
     32 H7         -2.6372   -0.8966   -4.9051 H         1 <0>         0.0000
     33 H8         -4.3021   -1.1813   -4.4238 H         1 <0>         0.0000
     34 H9         -2.2348   -4.3606   -6.5026 H         1 <0>         0.0000
     35 H10        -1.3493   -2.8756   -6.1949 H         1 <0>         0.0000
     36 H11        -2.7098   -1.4807   -2.5077 H         1 <0>         0.0000
     37 H12        -3.6007   -2.9759   -2.8514 H         1 <0>         0.0000
     38 H13        -2.4139   -4.8218   -4.0633 H         1 <0>         0.0000
     39 H14        -0.7153   -4.5847   -4.5266 H         1 <0>         0.0000
     40 H15         0.5948   -4.0297   -0.0970 H         1 <0>         0.0000
     41 H16         2.1744   -4.0778   -0.9082 H         1 <0>         0.0000
     42 H17         0.7948   -4.5308   -2.7744 H         1 <0>         0.0000
     43 H18        -0.3396   -0.3796   -2.3162 H         1 <0>         0.0000
     44 H19         0.7067    0.0792   -3.6839 H         1 <0>         0.0000
     45 H20         1.0187    0.7011   -2.0585 H         1 <0>         0.0000
     46 H21         4.8875   -2.3869   -2.8664 H         1 <0>         0.0000
     47 H22         3.9411   -2.6797   -1.4125 H         1 <0>         0.0000
     48 H23         3.4355   -3.3848   -2.9728 H         1 <0>         0.0000
     49 H24         4.1336   -0.9705   -4.6683 H         1 <0>         0.0000
     50 H25         2.6338   -0.0569   -4.6279 H         1 <0>         0.0000
     51 H26         2.5927   -1.8179   -4.8710 H         1 <0>         0.0000
     52 H27        -1.2455   -2.7386   -1.3578 H         1 <0>         0.0000
     53 H28        -1.4753   -4.4361   -1.8527 H         1 <0>         0.0000
     54 H29         3.6418   -0.1673   -1.0059 H         1 <0>         0.0000
     55 H30         3.1743    0.8973   -2.3580 H         1 <0>         0.0000
     56 H31        -0.8591   -2.3431   -3.7625 H         1 <0>         0.0000
@<TRIPOS>BOND
     1    1    3 ar
     2    1    5 ar
     3    1   26 1
     4    2    4 ar
     5    2    5 ar
     6    2   27 1
     7    3    6 ar
     8    3   28 1
     9    4    6 ar
    10    4   29 1
    11    5   23 1
    12    6   25 1
    13    7    9 1
    14    7    8 1
    15    7   30 1
    16    7   31 1
    17    8   10 1
    18    8   32 1
    19    8   33 1
    20    9   11 1
    21    9   34 1
    22    9   35 1
    23   10   21 1
    24   10   36 1
    25   10   37 1
    26   11   21 1
    27   11   38 1
    28   11   39 1
    29   12   13 1
    30   12   24 1
    31   12   40 1
    32   12   41 1
    33   13   18 1
    34   13   22 1
    35   13   42 1
    36   14   15 1
    37   14   20 1
    38   14   22 1
    39   14   24 1
    40   15   43 1
    41   15   44 1
    42   15   45 1
    43   16   20 1
    44   16   46 1
    45   16   47 1
    46   16   48 1
    47   17   20 1
    48   17   49 1
    49   17   50 1
    50   17   51 1
    51   18   21 1
    52   18   52 1
    53   18   53 1
    54   19   20 1
    55   19   23 1
    56   19   54 1
    57   19   55 1
    58   21   56 1
