@<TRIPOS>MOLECULE
*****
   56    58     0     0     0
SMALL
NO_CHARGES

@<TRIPOS>ATOM
      1 C1          6.0204   -4.6497   -2.9927 C.ar      1 <0>         0.0000
      2 C2          7.4596   -3.2340   -4.3354 C.ar      1 <0>         0.0000
      3 C3          6.9974   -5.6532   -3.0173 C.ar      1 <0>         0.0000
      4 C4          8.4293   -4.2319   -4.3595 C.ar      1 <0>         0.0000
      5 C5          6.2512   -3.4378   -3.6536 C.ar      1 <0>         0.0000
      6 C6          8.1932   -5.4432   -3.6988 C.ar      1 <0>         0.0000
      7 C7         -3.5226   -2.4784   -5.4116 C.3       1 <0>         0.0000
      8 C8         -3.2428   -1.4543   -4.3055 C.3       1 <0>         0.0000
      9 C9         -2.2605   -3.2907   -5.7220 C.3       1 <0>         0.0000
     10 C10        -2.6632   -2.1155   -3.0585 C.3       1 <0>         0.0000
     11 C11        -1.6921   -3.9428   -4.4652 C.3       1 <0>         0.0000
     12 C12         1.6073   -3.7010   -1.2168 C.3       1 <0>         0.0000
     13 C13         0.7741   -3.6475   -2.4971 C.3       1 <0>         0.0000
     14 C14         1.8762   -1.4561   -2.6012 C.3       1 <0>         0.0000
     15 C15         0.9874   -0.2152   -2.7171 C.3       1 <0>         0.0000
     16 C16         3.1556   -0.9823   -4.7450 C.3       1 <0>         0.0000
     17 C17         4.0358   -0.1007   -2.5526 C.3       1 <0>         0.0000
     18 C18        -0.7253   -3.4660   -2.1893 C.3       1 <0>         0.0000
     19 C19         4.1082   -2.5597   -3.0447 C.3       1 <0>         0.0000
     20 C20         3.2915   -1.2652   -3.2330 C.3       1 <0>         0.0000
     21 N1         -1.4170   -2.9011   -3.4003 N.4       1 <0>         0.0000
     22 O1          1.2117   -2.5539   -3.3043 O.3       1 <0>         0.0000
     23 O2          5.3614   -2.3912   -3.6928 O.3       1 <0>         0.0000
     24 S1          1.9052   -1.9544   -0.7973 S.3       1 <0>         0.0000
     25 Cl1         9.4128   -6.7021   -3.7292 Cl        1 <0>         0.0000
     26 H1          5.1000   -4.8327   -2.4501 H         1 <0>         0.0000
     27 H2          7.6256   -2.2875   -4.8413 H         1 <0>         0.0000
     28 H3          6.8239   -6.5933   -2.5031 H         1 <0>         0.0000
     29 H4          9.3646   -4.0736   -4.8868 H         1 <0>         0.0000
     30 H5         -3.8721   -1.9689   -6.3132 H         1 <0>         0.0000
     31 H6         -4.3280   -3.1527   -5.0961 H         1 <0>         0.0000
     32 H7         -2.5457   -0.6871   -4.6658 H         1 <0>         0.0000
     33 H8         -4.1577   -0.9310   -4.0129 H         1 <0>         0.0000
     34 H9         -2.4710   -4.0846   -6.4445 H         1 <0>         0.0000
     35 H10        -1.4948   -2.6498   -6.1769 H         1 <0>         0.0000
     36 H11        -2.3790   -1.3810   -2.3022 H         1 <0>         0.0000
     37 H12        -3.3640   -2.8244   -2.6087 H         1 <0>         0.0000
     38 H13        -2.3956   -4.6539   -4.0235 H         1 <0>         0.0000
     39 H14        -0.7509   -4.4560   -4.6657 H         1 <0>         0.0000
     40 H15         1.0704   -4.1797   -0.3936 H         1 <0>         0.0000
     41 H16         2.5406   -4.2407   -1.3841 H         1 <0>         0.0000
     42 H17         0.9349   -4.5512   -3.0929 H         1 <0>         0.0000
     43 H18         0.0024   -0.4176   -2.2877 H         1 <0>         0.0000
     44 H19         0.8716    0.0845   -3.7613 H         1 <0>         0.0000
     45 H20         1.4087    0.6273   -2.1658 H         1 <0>         0.0000
     46 H21         4.1493   -0.9545   -5.1945 H         1 <0>         0.0000
     47 H22         2.5792   -1.7634   -5.2487 H         1 <0>         0.0000
     48 H23         2.6823   -0.0158   -4.9363 H         1 <0>         0.0000
     49 H24         5.0596   -0.0611   -2.9294 H         1 <0>         0.0000
     50 H25         4.0847   -0.2295   -1.4668 H         1 <0>         0.0000
     51 H26         3.5673    0.8626   -2.7696 H         1 <0>         0.0000
     52 H27        -0.8486   -2.7448   -1.3791 H         1 <0>         0.0000
     53 H28        -1.2088   -4.4061   -1.9160 H         1 <0>         0.0000
     54 H29         3.5779   -3.4112   -3.4905 H         1 <0>         0.0000
     55 H30         4.2691   -2.7517   -1.9773 H         1 <0>         0.0000
     56 H31        -0.7158   -2.2508   -3.7936 H         1 <0>         0.0000
@<TRIPOS>BOND
     1    1    3 ar
     2    1    5 ar
     3    1   26 1
     4    2    4 ar
     5    2    5 ar
     6    2   27 1
     7    3    6 ar
     8    3   28 1
     9    4    6 ar
    10    4   29 1
    11    5   23 1
    12    6   25 1
    13    7    9 1
    14    7    8 1
    15    7   30 1
    16    7   31 1
    17    8   10 1
    18    8   32 1
    19    8   33 1
    20    9   11 1
    21    9   34 1
    22    9   35 1
    23   10   21 1
    24   10   36 1
    25   10   37 1
    26   11   21 1
    27   11   38 1
    28   11   39 1
    29   12   13 1
    30   12   24 1
    31   12   40 1
    32   12   41 1
    33   13   18 1
    34   13   22 1
    35   13   42 1
    36   14   15 1
    37   14   20 1
    38   14   22 1
    39   14   24 1
    40   15   43 1
    41   15   44 1
    42   15   45 1
    43   16   20 1
    44   16   46 1
    45   16   47 1
    46   16   48 1
    47   17   20 1
    48   17   49 1
    49   17   50 1
    50   17   51 1
    51   18   21 1
    52   18   52 1
    53   18   53 1
    54   19   20 1
    55   19   23 1
    56   19   54 1
    57   19   55 1
    58   21   56 1
