@<TRIPOS>MOLECULE
*****
   35    35     0     0     0
SMALL
NO_CHARGES

@<TRIPOS>ATOM
      1 C1         -0.8029   -1.2203   -1.1944 C.3       1 <0>         0.0000
      2 C2         -0.1115   -2.5559   -1.5848 C.3       1 <0>         0.0000
      3 C3         -0.1564   -0.8334    0.1506 C.3       1 <0>         0.0000
      4 C4          0.8684   -2.8512   -0.4274 C.3       1 <0>         0.0000
      5 C5          1.0472   -4.3348   -0.0973 C.3       1 <0>         0.0000
      6 C6          0.8473   -9.1139   -0.1676 C.3       1 <0>         0.0000
      7 C7         -0.4673   -9.8314    0.1619 C.3       1 <0>         0.0000
      8 C8          1.6699   -5.1005   -1.2621 C.3       1 <0>         0.0000
      9 C9          0.5836   -7.6363   -0.4613 C.3       1 <0>         0.0000
     10 C10        -0.2745  -11.3029    0.4615 C.3       1 <0>         0.0000
     11 N1          0.2613   -2.1315    0.7001 N.3       1 <0>         0.0000
     12 O1          2.9541   -6.7605    0.4020 O.2       1 <0>         0.0000
     13 O2          2.7109   -7.4209   -2.0565 O.2       1 <0>         0.0000
     14 F1         -1.4583  -11.9017    0.7498 F         1 <0>         0.0000
     15 F2          0.2649  -11.9706   -0.5892 F         1 <0>         0.0000
     16 F3          0.5436  -11.5037    1.5250 F         1 <0>         0.0000
     17 S1          2.1590   -6.7992   -0.8394 S.o2      1 <0>         0.0000
     18 H1         -0.6642   -0.4399   -1.9470 H         1 <0>         0.0000
     19 H2         -1.8781   -1.3708   -1.0696 H         1 <0>         0.0000
     20 H3         -0.8511   -3.3600   -1.6627 H         1 <0>         0.0000
     21 H4          0.4091   -2.4948   -2.5442 H         1 <0>         0.0000
     22 H5          0.6977   -0.1564   -0.0243 H         1 <0>         0.0000
     23 H6         -0.8521   -0.3318    0.8299 H         1 <0>         0.0000
     24 H7          1.8581   -2.4305   -0.6890 H         1 <0>         0.0000
     25 H8          0.0646   -4.7436    0.1609 H         1 <0>         0.0000
     26 H9          1.6902   -4.4438    0.7825 H         1 <0>         0.0000
     27 H10         1.5397   -9.1980    0.6742 H         1 <0>         0.0000
     28 H11         1.3217   -9.5785   -1.0356 H         1 <0>         0.0000
     29 H12        -0.9493   -9.3890    1.0390 H         1 <0>         0.0000
     30 H13        -1.1719   -9.7670   -0.6728 H         1 <0>         0.0000
     31 H14         1.0135   -5.1778   -2.1330 H         1 <0>         0.0000
     32 H15         2.6140   -4.6506   -1.5876 H         1 <0>         0.0000
     33 H16        -0.0621   -7.5026   -1.3346 H         1 <0>         0.0000
     34 H17         0.1485   -7.1234    0.4003 H         1 <0>         0.0000
     35 H18         0.9210   -2.0205    1.4677 H         1 <0>         0.0000
@<TRIPOS>BOND
     1    1    2 1
     2    1    3 1
     3    1   18 1
     4    1   19 1
     5    2    4 1
     6    2   20 1
     7    2   21 1
     8    3   11 1
     9    3   22 1
    10    3   23 1
    11    4    5 1
    12    4   11 1
    13    4   24 1
    14    5    8 1
    15    5   25 1
    16    5   26 1
    17    6    7 1
    18    6    9 1
    19    6   27 1
    20    6   28 1
    21    7   10 1
    22    7   29 1
    23    7   30 1
    24    8   17 1
    25    8   31 1
    26    8   32 1
    27    9   17 1
    28    9   33 1
    29    9   34 1
    30   10   14 1
    31   10   15 1
    32   10   16 1
    33   11   35 1
    34   12   17 2
    35   13   17 2
