@<TRIPOS>MOLECULE
*****
   30    31     0     0     0
SMALL
NO_CHARGES

@<TRIPOS>ATOM
      1 C1          0.6073    2.8229   -1.0687 C.ar      1 <0>         0.0000
      2 C2         -0.5081    2.9106   -0.2256 C.ar      1 <0>         0.0000
      3 C3          1.1660    1.5786   -1.3648 C.ar      1 <0>         0.0000
      4 C4         -1.0721    1.7632    0.3407 C.ar      1 <0>         0.0000
      5 C5          0.5933    0.4369   -0.8040 C.ar      1 <0>         0.0000
      6 C6         -0.5100    0.5244    0.0525 C.ar      1 <0>         0.0000
      7 C7          0.6920   -1.9325   -0.4233 C.cat     1 <0>         0.0000
      8 C8         -0.1311   -1.6733    0.8288 C.3       1 <0>         0.0000
      9 C9          3.4113   -3.5590    4.3726 C.3       1 <0>         0.0000
     10 C10         0.7604   -1.3463    2.0391 C.3       1 <0>         0.0000
     11 C11         1.6240   -2.5207    2.5068 C.3       1 <0>         0.0000
     12 N1          1.0660   -0.8727   -1.1185 N.pl3     1 <0>         0.0000
     13 N2          1.0204   -3.1753   -0.7658 N.pl3     1 <0>         0.0000
     14 O1         -1.0695   -0.6342    0.5520 O.3       1 <0>         0.0000
     15 S1          2.5487   -1.9960    3.9969 S.3       1 <0>         0.0000
     16 H1          1.0412    3.7211   -1.4956 H         1 <0>         0.0000
     17 H2         -0.9389    3.8812   -0.0001 H         1 <0>         0.0000
     18 H3          2.0288    1.4993   -2.0220 H         1 <0>         0.0000
     19 H4         -1.9347    1.8149    0.9975 H         1 <0>         0.0000
     20 H5         -0.7420   -2.5552    1.0360 H         1 <0>         0.0000
     21 H6          4.0150   -3.3764    5.2640 H         1 <0>         0.0000
     22 H7          4.0748   -3.8530    3.5549 H         1 <0>         0.0000
     23 H8          2.6998   -4.3600    4.5894 H         1 <0>         0.0000
     24 H9          0.0767   -1.0472    2.8397 H         1 <0>         0.0000
     25 H10         1.3910   -0.4805    1.8138 H         1 <0>         0.0000
     26 H11         0.9941   -3.3840    2.7562 H         1 <0>         0.0000
     27 H12         2.3393   -2.8240    1.7331 H         1 <0>         0.0000
     28 H13         1.6418   -0.9762   -1.9513 H         1 <0>         0.0000
     29 H14         1.5785   -3.3966   -1.5852 H         1 <0>         0.0000
     30 H15         0.7161   -3.9557   -0.1951 H         1 <0>         0.0000
@<TRIPOS>BOND
     1    1    2 ar
     2    1    3 ar
     3    1   16 1
     4    2    4 ar
     5    2   17 1
     6    3    5 ar
     7    3   18 1
     8    4    6 ar
     9    4   19 1
    10    5    6 ar
    11    5   12 1
    12    6   14 1
    13    7    8 1
    14    7   12 2
    15    7   13 1
    16    8   10 1
    17    8   14 1
    18    8   20 1
    19    9   15 1
    20    9   21 1
    21    9   22 1
    22    9   23 1
    23   10   11 1
    24   10   24 1
    25   10   25 1
    26   11   15 1
    27   11   26 1
    28   11   27 1
    29   12   28 1
    30   13   29 1
    31   13   30 1
