@<TRIPOS>MOLECULE
*****
   41    43     0     0     0
SMALL
NO_CHARGES

@<TRIPOS>ATOM
      1 C1          6.5656   -3.2854   -2.9809 C.ar      1 <0>         0.0000
      2 C2          7.0686    0.2399   -3.6114 C.2       1 <0>         0.0000
      3 C3          5.7367   -3.6666   -4.0316 C.ar      1 <0>         0.0000
      4 C4          7.8371    0.0020   -2.5149 C.2       1 <0>         0.0000
      5 C5          6.4188   -1.0177   -3.9246 C.ar      1 <0>         0.0000
      6 C6          6.8900   -1.9296   -2.9651 C.ar      1 <0>         0.0000
      7 C7          5.5418   -1.5254   -4.9192 C.ar      1 <0>         0.0000
      8 C8          0.4001    0.7433   -0.8893 C.3       1 <0>         0.0000
      9 C9         -0.5027    1.7510   -1.6344 C.3       1 <0>         0.0000
     10 C10         1.4557    0.2853   -1.9203 C.3       1 <0>         0.0000
     11 C11         0.4065    2.3227   -2.7153 C.3       1 <0>         0.0000
     12 C12         4.3294   -1.3630   -7.0289 C.3       1 <0>         0.0000
     13 C13         3.0439    0.1634   -4.5885 C.3       1 <0>         0.0000
     14 C14         4.3023    0.4994   -5.4258 C.3       1 <0>         0.0000
     15 C15         2.4112    1.4212   -4.0120 C.3       1 <0>         0.0000
     16 N1          5.2258   -2.8216   -4.9546 N.ar      1 <0>         0.0000
     17 N2          4.9927   -0.6888   -5.9093 N.pl3     1 <0>         0.0000
     18 N3          1.1870    1.1093   -3.1817 N.4       1 <0>         0.0000
     19 O1          7.7399   -1.3072   -2.0947 O.3       1 <0>         0.0000
     20 H1          6.9505   -3.9938   -2.2560 H         1 <0>         0.0000
     21 H2          7.0287    1.1755   -4.1516 H         1 <0>         0.0000
     22 H3          5.4518   -4.7100   -4.1456 H         1 <0>         0.0000
     23 H4          8.5079    0.6234   -1.9382 H         1 <0>         0.0000
     24 H5          0.8967    1.2239   -0.0441 H         1 <0>         0.0000
     25 H6         -0.1693   -0.1011   -0.4989 H         1 <0>         0.0000
     26 H7         -1.3636    1.2508   -2.0899 H         1 <0>         0.0000
     27 H8         -0.8877    2.5350   -0.9803 H         1 <0>         0.0000
     28 H9          2.4764    0.5083   -1.6082 H         1 <0>         0.0000
     29 H10         1.3975   -0.7697   -2.1853 H         1 <0>         0.0000
     30 H11        -0.1007    2.7721   -3.5704 H         1 <0>         0.0000
     31 H12         1.1353    3.0301   -2.3123 H         1 <0>         0.0000
     32 H13         4.1164   -0.6164   -7.7993 H         1 <0>         0.0000
     33 H14         3.3995   -1.8749   -6.7466 H         1 <0>         0.0000
     34 H15         4.9995   -2.1154   -7.4441 H         1 <0>         0.0000
     35 H16         3.3450   -0.5147   -3.7842 H         1 <0>         0.0000
     36 H17         2.3187   -0.3700   -5.2147 H         1 <0>         0.0000
     37 H18         4.0277    1.1123   -6.2902 H         1 <0>         0.0000
     38 H19         4.9791    1.0996   -4.8146 H         1 <0>         0.0000
     39 H20         3.0981    1.9583   -3.3523 H         1 <0>         0.0000
     40 H21         2.0850    2.1062   -4.7998 H         1 <0>         0.0000
     41 H22         0.5572    0.5587   -3.7737 H         1 <0>         0.0000
@<TRIPOS>BOND
     1    1    3 ar
     2    1    6 ar
     3    1   20 1
     4    2    4 2
     5    2    5 1
     6    2   21 1
     7    3   16 ar
     8    3   22 1
     9    4   19 1
    10    4   23 1
    11    5    6 ar
    12    5    7 ar
    13    6   19 1
    14    7   16 ar
    15    7   17 1
    16    8    9 1
    17    8   10 1
    18    8   24 1
    19    8   25 1
    20    9   11 1
    21    9   26 1
    22    9   27 1
    23   10   18 1
    24   10   28 1
    25   10   29 1
    26   11   18 1
    27   11   30 1
    28   11   31 1
    29   12   17 1
    30   12   32 1
    31   12   33 1
    32   12   34 1
    33   13   14 1
    34   13   15 1
    35   13   35 1
    36   13   36 1
    37   14   17 1
    38   14   37 1
    39   14   38 1
    40   15   18 1
    41   15   39 1
    42   15   40 1
    43   18   41 1
