@<TRIPOS>MOLECULE
*****
   30    31     0     0     0
SMALL
NO_CHARGES

@<TRIPOS>ATOM
      1 C1          1.9849    0.5031   -4.6599 C.ar      1 <0>         0.0000
      2 C2          1.9599    1.2182   -6.8232 C.ar      1 <0>         0.0000
      3 C3          0.7289    1.0767   -4.4514 C.ar      1 <0>         0.0000
      4 C4          0.6939    1.8063   -6.5932 C.ar      1 <0>         0.0000
      5 C5          0.0321    1.0380   -3.1209 C.2       1 <0>         0.0000
      6 C6          0.1521   -1.0049    0.0380 C.3       1 <0>         0.0000
      7 C7         -0.5209    1.0256   -0.2061 C.3       1 <0>         0.0000
      8 C8         -0.4889   -0.2129   -1.1255 C.3       1 <0>         0.0000
      9 C9          0.6989    0.5586    2.0679 C.3       1 <0>         0.0000
     10 C10         0.7868   -0.5021    3.1537 C.3       1 <0>         0.0000
     11 N1          2.5990    0.5765   -5.8517 N.ar      1 <0>         0.0000
     12 N2          0.0861    1.7417   -5.4263 N.ar      1 <0>         0.0000
     13 N3          0.3174   -0.0694   -2.3181 N.am      1 <0>         0.0000
     14 N4         -0.2519    0.1092    1.0045 N.4       1 <0>         0.0000
     15 O1         -0.7014    1.9285   -2.7160 O.2       1 <0>         0.0000
     16 F1         -0.5238   -0.8033    3.5486 F         1 <0>         0.0000
     17 Cl1        -0.0978    2.6489   -7.8893 Cl        1 <0>         0.0000
     18 H1          2.5305    0.0036   -3.8625 H         1 <0>         0.0000
     19 H2          2.4381    1.2812   -7.7974 H         1 <0>         0.0000
     20 H3         -0.2614   -1.9746    0.3133 H         1 <0>         0.0000
     21 H4          1.2405   -1.0417   -0.0225 H         1 <0>         0.0000
     22 H5          0.3328    1.6880   -0.3352 H         1 <0>         0.0000
     23 H6         -1.4458    1.5903   -0.1187 H         1 <0>         0.0000
     24 H7         -1.5035   -0.5622   -1.3480 H         1 <0>         0.0000
     25 H8          0.3037    1.4960    2.4676 H         1 <0>         0.0000
     26 H9          1.6716    0.7458    1.6076 H         1 <0>         0.0000
     27 H10         1.3379   -0.1241    4.0174 H         1 <0>         0.0000
     28 H11         1.2471   -1.4288    2.7994 H         1 <0>         0.0000
     29 H12         0.5644   -0.9289   -2.7995 H         1 <0>         0.0000
     30 H13        -1.1299   -0.1403    1.4736 H         1 <0>         0.0000
@<TRIPOS>BOND
     1    1    3 ar
     2    1   11 ar
     3    1   18 1
     4    2    4 ar
     5    2   11 ar
     6    2   19 1
     7    3    5 1
     8    3   12 ar
     9    4   12 ar
    10    4   17 1
    11    5   13 am
    12    5   15 2
    13    6    8 1
    14    6   14 1
    15    6   20 1
    16    6   21 1
    17    7    8 1
    18    7   14 1
    19    7   22 1
    20    7   23 1
    21    8   13 1
    22    8   24 1
    23    9   10 1
    24    9   14 1
    25    9   25 1
    26    9   26 1
    27   10   16 1
    28   10   27 1
    29   10   28 1
    30   13   29 1
    31   14   30 1
