@<TRIPOS>MOLECULE
*****
   37    39     0     0     0
SMALL
NO_CHARGES

@<TRIPOS>ATOM
      1 C1         -2.1393    5.0132    1.9580 C.1       1 <0>         0.0000
      2 C2          3.4476    5.0986    3.8914 C.ar      1 <0>         0.0000
      3 C3          1.7405    6.7824    4.3143 C.ar      1 <0>         0.0000
      4 C4          4.3683    5.8277    4.6491 C.ar      1 <0>         0.0000
      5 C5          2.6543    7.5148    5.0768 C.ar      1 <0>         0.0000
      6 C6          2.1398    5.5795    3.7074 C.ar      1 <0>         0.0000
      7 C7          3.9471    7.0139    5.2530 C.ar      1 <0>         0.0000
      8 C8         -0.4674    3.2185    1.3557 C.2       1 <0>         0.0000
      9 C9         -0.4276    1.3603    0.2039 C.2       1 <0>         0.0000
     10 C10        -0.8107    4.4751    2.0214 C.2       1 <0>         0.0000
     11 C11        -0.8585    0.2064   -0.6388 C.3       1 <0>         0.0000
     12 C12        -2.0713   -0.5567   -0.0671 C.3       1 <0>         0.0000
     13 C13        -3.4186    0.1616   -0.2322 C.3       1 <0>         0.0000
     14 C14        -3.5596    1.5101    0.4896 C.3       1 <0>         0.0000
     15 C15        -2.6012    2.6032    0.0040 C.3       1 <0>         0.0000
     16 N1         -3.2285    5.4279    1.9034 N.1       1 <0>         0.0000
     17 N2          0.7281    2.6471    1.5051 N.2       1 <0>         0.0000
     18 N3          0.7497    1.4808    0.7871 N.2       1 <0>         0.0000
     19 N4          0.0162    5.1967    2.7523 N.2       1 <0>         0.0000
     20 N5         -1.2348    2.4290    0.5193 N.pl3     1 <0>         0.0000
     21 N6          1.2584    4.8064    2.9385 N.pl3     1 <0>         0.0000
     22 I1          5.5900    8.5350    5.8287 I         1 <0>         0.0000
     23 H1          3.7508    4.1592    3.4348 H         1 <0>         0.0000
     24 H2          0.7252    7.1389    4.1813 H         1 <0>         0.0000
     25 H3          5.3818    5.4606    4.7706 H         1 <0>         0.0000
     26 H4          2.3485    8.4501    5.5337 H         1 <0>         0.0000
     27 H5         -1.0844    0.5471   -1.6583 H         1 <0>         0.0000
     28 H6          0.0070   -0.4567   -0.7084 H         1 <0>         0.0000
     29 H7         -2.1324   -1.5230   -0.5798 H         1 <0>         0.0000
     30 H8         -1.8876   -0.7763    0.9915 H         1 <0>         0.0000
     31 H9         -3.6086    0.3159   -1.3035 H         1 <0>         0.0000
     32 H10        -4.2130   -0.5041    0.1240 H         1 <0>         0.0000
     33 H11        -4.5781    1.8831    0.3350 H         1 <0>         0.0000
     34 H12        -3.4341    1.3867    1.5718 H         1 <0>         0.0000
     35 H13        -2.5458    2.6098   -1.0902 H         1 <0>         0.0000
     36 H14        -2.9586    3.5803    0.3125 H         1 <0>         0.0000
     37 H15         1.5629    3.9100    2.5209 H         1 <0>         0.0000
@<TRIPOS>BOND
     1    1   10 1
     2    1   16 3
     3    2    4 ar
     4    2    6 ar
     5    2   23 1
     6    3    5 ar
     7    3    6 ar
     8    3   24 1
     9    4    7 ar
    10    4   25 1
    11    5    7 ar
    12    5   26 1
    13    6   21 1
    14    7   22 1
    15    8   10 1
    16    8   17 2
    17    8   20 1
    18    9   11 1
    19    9   18 2
    20    9   20 1
    21   10   19 2
    22   11   12 1
    23   11   27 1
    24   11   28 1
    25   12   13 1
    26   12   29 1
    27   12   30 1
    28   13   14 1
    29   13   31 1
    30   13   32 1
    31   14   15 1
    32   14   33 1
    33   14   34 1
    34   15   20 1
    35   15   35 1
    36   15   36 1
    37   17   18 1
    38   19   21 1
    39   21   37 1
