@<TRIPOS>MOLECULE
*****
   36    39     0     0     0
SMALL
NO_CHARGES

@<TRIPOS>ATOM
      1 C1          3.6200   -7.3685   -0.6108 C.2       1 <0>         0.0000
      2 C2          4.4821   -6.1911    0.8950 C.2       1 <0>         0.0000
      3 C3          3.2695   -3.3840    1.0361 C.2       1 <0>         0.0000
      4 C4          2.4269   -4.3695    2.9523 C.2       1 <0>         0.0000
      5 C5          0.9348   -2.1049   -0.8667 C.3       1 <0>         0.0000
      6 C6          0.9134   -0.8707    0.0513 C.3       1 <0>         0.0000
      7 C7          3.2520   -8.3076   -2.9920 C.3       1 <0>         0.0000
      8 C8          3.1115   -9.4620   -2.0444 C.3       1 <0>         0.0000
      9 C9          0.9252   -3.2702    0.1285 C.3       1 <0>         0.0000
     10 C10         1.8618   -1.2472    1.2102 C.3       1 <0>         0.0000
     11 C11         2.7554   -8.0566   -1.5705 C.3       1 <0>         0.0000
     12 C12         1.8714   -2.8044    1.2738 C.3       1 <0>         0.0000
     13 C13         4.6061   -5.2343    2.0515 C.3       1 <0>         0.0000
     14 N1          3.2714   -6.5136    0.3169 N.2       1 <0>         0.0000
     15 N2          5.5225   -6.7919    0.3752 N.2       1 <0>         0.0000
     16 N3          1.5467   -3.3828    2.5781 N.am      1 <0>         0.0000
     17 N4          3.5159   -4.2817    2.0543 N.am      1 <0>         0.0000
     18 O1          4.0200   -3.1301    0.1092 O.2       1 <0>         0.0000
     19 O2          2.3392   -5.1579    3.8775 O.2       1 <0>         0.0000
     20 O3          4.9492   -7.5977   -0.6402 O.3       1 <0>         0.0000
     21 H1          0.0914   -2.1394   -1.5631 H         1 <0>         0.0000
     22 H2          1.8606   -2.1257   -1.4504 H         1 <0>         0.0000
     23 H3          1.2219    0.0470   -0.4569 H         1 <0>         0.0000
     24 H4         -0.1037   -0.7096    0.4290 H         1 <0>         0.0000
     25 H5          4.2530   -7.9621   -3.2283 H         1 <0>         0.0000
     26 H6          2.5214   -8.1901   -3.7860 H         1 <0>         0.0000
     27 H7          2.2831  -10.1504   -2.1779 H         1 <0>         0.0000
     28 H8          4.0178   -9.8999   -1.6395 H         1 <0>         0.0000
     29 H9         -0.0806   -3.3952    0.5498 H         1 <0>         0.0000
     30 H10         1.2324   -4.2318   -0.2907 H         1 <0>         0.0000
     31 H11         2.8738   -0.8907    1.0018 H         1 <0>         0.0000
     32 H12         1.5547   -0.8317    2.1728 H         1 <0>         0.0000
     33 H13         1.7067   -7.8182   -1.4368 H         1 <0>         0.0000
     34 H14         4.5485   -5.7807    2.9964 H         1 <0>         0.0000
     35 H15         5.5661   -4.7174    1.9966 H         1 <0>         0.0000
     36 H16         0.5926   -3.4593    2.9072 H         1 <0>         0.0000
@<TRIPOS>BOND
     1    1   11 1
     2    1   14 2
     3    1   20 1
     4    2   13 1
     5    2   14 1
     6    2   15 2
     7    3   12 1
     8    3   17 am
     9    3   18 2
    10    4   16 am
    11    4   17 am
    12    4   19 2
    13    5    6 1
    14    5    9 1
    15    5   21 1
    16    5   22 1
    17    6   10 1
    18    6   23 1
    19    6   24 1
    20    7    8 1
    21    7   11 1
    22    7   25 1
    23    7   26 1
    24    8   11 1
    25    8   27 1
    26    8   28 1
    27    9   12 1
    28    9   29 1
    29    9   30 1
    30   10   12 1
    31   10   31 1
    32   10   32 1
    33   11   33 1
    34   12   16 1
    35   13   17 1
    36   13   34 1
    37   13   35 1
    38   15   20 1
    39   16   36 1
