@<TRIPOS>MOLECULE
*****
   36    39     0     0     0
SMALL
NO_CHARGES

@<TRIPOS>ATOM
      1 C1          1.9631   -7.9850    1.8751 C.2       1 <0>         0.0000
      2 C2          3.5170   -6.6164    2.1977 C.2       1 <0>         0.0000
      3 C3          2.8379   -3.8322    1.0660 C.2       1 <0>         0.0000
      4 C4          2.7051   -3.5236    3.3544 C.2       1 <0>         0.0000
      5 C5          0.1034   -2.9277   -0.4918 C.3       1 <0>         0.0000
      6 C6          0.5867   -1.4691   -0.4174 C.3       1 <0>         0.0000
      7 C7         -0.5420   -8.1882    2.3868 C.3       1 <0>         0.0000
      8 C8         -0.4119   -7.9908    0.9064 C.3       1 <0>         0.0000
      9 C9          0.3555   -3.4415    0.9297 C.3       1 <0>         0.0000
     10 C10         1.8682   -1.5414    0.4407 C.3       1 <0>         0.0000
     11 C11         0.7023   -8.7012    1.6725 C.3       1 <0>         0.0000
     12 C12         1.7235   -2.8138    1.3286 C.3       1 <0>         0.0000
     13 C13         4.2321   -5.3243    2.5024 C.3       1 <0>         0.0000
     14 N1          2.1441   -6.7167    2.1473 N.2       1 <0>         0.0000
     15 N2          4.1628   -7.7344    1.9770 N.2       1 <0>         0.0000
     16 N3          1.8736   -2.5995    2.7681 N.am      1 <0>         0.0000
     17 N4          3.3602   -4.1887    2.2924 N.am      1 <0>         0.0000
     18 O1          3.1862   -4.2733   -0.0159 O.2       1 <0>         0.0000
     19 O2          2.8900   -3.7378    4.5398 O.2       1 <0>         0.0000
     20 O3          3.1174   -8.6677    1.7630 O.3       1 <0>         0.0000
     21 H1         -0.9446   -3.0204   -0.7933 H         1 <0>         0.0000
     22 H2          0.7149   -3.4924   -1.2027 H         1 <0>         0.0000
     23 H3          0.7689   -1.0269   -1.4008 H         1 <0>         0.0000
     24 H4         -0.1719   -0.8546    0.0825 H         1 <0>         0.0000
     25 H5         -0.4018   -7.3246    3.0283 H         1 <0>         0.0000
     26 H6         -1.2347   -8.9386    2.7546 H         1 <0>         0.0000
     27 H7         -1.0094   -8.6055    0.2404 H         1 <0>         0.0000
     28 H8         -0.1831   -6.9948    0.5422 H         1 <0>         0.0000
     29 H9         -0.4096   -3.0490    1.6116 H         1 <0>         0.0000
     30 H10         0.3628   -4.5298    1.0298 H         1 <0>         0.0000
     31 H11         2.7463   -1.6511   -0.2009 H         1 <0>         0.0000
     32 H12         2.0214   -0.6588    1.0660 H         1 <0>         0.0000
     33 H13         0.8098   -9.7709    1.5315 H         1 <0>         0.0000
     34 H14         4.5360   -5.3040    3.5517 H         1 <0>         0.0000
     35 H15         5.1203   -5.2393    1.8734 H         1 <0>         0.0000
     36 H16         1.1232   -2.2232    3.3337 H         1 <0>         0.0000
@<TRIPOS>BOND
     1    1   11 1
     2    1   14 2
     3    1   20 1
     4    2   13 1
     5    2   14 1
     6    2   15 2
     7    3   12 1
     8    3   17 am
     9    3   18 2
    10    4   16 am
    11    4   17 am
    12    4   19 2
    13    5    6 1
    14    5    9 1
    15    5   21 1
    16    5   22 1
    17    6   10 1
    18    6   23 1
    19    6   24 1
    20    7    8 1
    21    7   11 1
    22    7   25 1
    23    7   26 1
    24    8   11 1
    25    8   27 1
    26    8   28 1
    27    9   12 1
    28    9   29 1
    29    9   30 1
    30   10   12 1
    31   10   31 1
    32   10   32 1
    33   11   33 1
    34   12   16 1
    35   13   17 1
    36   13   34 1
    37   13   35 1
    38   15   20 1
    39   16   36 1
