@<TRIPOS>MOLECULE
*****
   31    33     0     0     0
SMALL
NO_CHARGES

@<TRIPOS>ATOM
      1 C1          9.2044    3.8236   -1.4645 C.ar      1 <0>         0.0000
      2 C2          8.3736    4.9699   -1.4352 C.ar      1 <0>         0.0000
      3 C3          8.6860    2.5804   -1.1531 C.ar      1 <0>         0.0000
      4 C4          5.5625   -0.7507   -2.6527 C.ar      1 <0>         0.0000
      5 C5          7.0358    4.8585   -1.1105 C.ar      1 <0>         0.0000
      6 C6          4.7262   -0.5749   -3.7482 C.ar      1 <0>         0.0000
      7 C7          3.8079   -1.9663   -1.5218 C.ar      1 <0>         0.0000
      8 C8          4.6848    2.3084   -0.2311 C.ar      1 <0>         0.0000
      9 C9          7.3208    2.4455   -0.7968 C.ar      1 <0>         0.0000
     10 C10         5.1080   -1.4437   -1.5158 C.ar      1 <0>         0.0000
     11 C11         6.4779    3.5942   -0.7914 C.ar      1 <0>         0.0000
     12 C12         3.4158   -1.0688   -3.7334 C.ar      1 <0>         0.0000
     13 C13         2.9565   -1.7701   -2.6099 C.ar      1 <0>         0.0000
     14 C14         6.6750    1.2069   -0.4426 C.ar      1 <0>         0.0000
     15 C15         5.9443   -1.7274   -0.3353 C.2       1 <0>         0.0000
     16 N1          5.1392    3.5117   -0.5000 N.ar      1 <0>         0.0000
     17 N2          5.3826    1.1426   -0.1841 N.ar      1 <0>         0.0000
     18 N3          6.9865   -1.1538    0.1573 N.2       1 <0>         0.0000
     19 N4          7.4404    0.0430   -0.4092 N.pl3     1 <0>         0.0000
     20 Cl1         2.3970   -0.7994   -5.1218 Cl        1 <0>         0.0000
     21 Cl2         1.3366   -2.4186   -2.5393 Cl        1 <0>         0.0000
     22 H1         10.2504    3.9219   -1.7413 H         1 <0>         0.0000
     23 H2          8.7934    5.9418   -1.6806 H         1 <0>         0.0000
     24 H3          9.3328    1.7092   -1.2105 H         1 <0>         0.0000
     25 H4          6.5716   -0.3586   -2.6861 H         1 <0>         0.0000
     26 H5          6.3769    5.7215   -1.0948 H         1 <0>         0.0000
     27 H6          5.0764   -0.0440   -4.6277 H         1 <0>         0.0000
     28 H7          3.4397   -2.5198   -0.6630 H         1 <0>         0.0000
     29 H8          3.6223    2.2177   -0.0107 H         1 <0>         0.0000
     30 H9          5.6637   -2.6214    0.2232 H         1 <0>         0.0000
     31 H10         8.3875    0.2057   -0.0882 H         1 <0>         0.0000
@<TRIPOS>BOND
     1    1    2 ar
     2    1    3 ar
     3    1   22 1
     4    2    5 ar
     5    2   23 1
     6    3    9 ar
     7    3   24 1
     8    4    6 ar
     9    4   10 ar
    10    4   25 1
    11    5   11 ar
    12    5   26 1
    13    6   12 ar
    14    6   27 1
    15    7   10 ar
    16    7   13 ar
    17    7   28 1
    18    8   16 ar
    19    8   17 ar
    20    8   29 1
    21    9   11 ar
    22    9   14 ar
    23   10   15 1
    24   11   16 ar
    25   12   13 ar
    26   12   20 1
    27   13   21 1
    28   14   17 ar
    29   14   19 1
    30   15   18 2
    31   15   30 1
    32   18   19 1
    33   19   31 1
