@<TRIPOS>MOLECULE
*****
   23    24     0     0     0
SMALL
NO_CHARGES

@<TRIPOS>ATOM
      1 C1         -2.0057   -2.0023    4.2746 C.2       1 <0>         0.0000
      2 C2         -1.6150   -3.2889    3.8173 C.2       1 <0>         0.0000
      3 C3         -2.6290   -1.2716    3.2887 C.2       1 <0>         0.0000
      4 C4         -6.4882   -4.2030    0.0477 C.2       1 <0>         0.0000
      5 C5         -1.9501   -3.5310    2.4945 C.2       1 <0>         0.0000
      6 C6         -5.9676   -4.7306    1.1939 C.2       1 <0>         0.0000
      7 C7         -4.0606   -4.4432    0.0984 C.2       1 <0>         0.0000
      8 C8         -1.5739   -4.7419    1.7899 C.2       1 <0>         0.0000
      9 C9         -6.7464   -5.1694    2.3980 C.3       1 <0>         0.0000
     10 N1         -4.5850   -4.8617    1.2112 N.2       1 <0>         0.0000
     11 N2         -1.8108   -5.1688    0.5957 N.2       1 <0>         0.0000
     12 N3         -2.6918   -4.3611   -0.1725 N.pl3     1 <0>         0.0000
     13 S1         -2.7563   -2.1422    1.8045 S.3       1 <0>         0.0000
     14 S2         -5.2118   -3.8247   -1.0891 S.3       1 <0>         0.0000
     15 H1         -1.8347   -1.6316    5.2797 H         1 <0>         0.0000
     16 H2         -1.1014   -4.0236    4.4300 H         1 <0>         0.0000
     17 H3         -3.0189   -0.2631    3.3561 H         1 <0>         0.0000
     18 H4         -7.5237   -4.0150   -0.2030 H         1 <0>         0.0000
     19 H5         -0.9228   -5.4054    2.3605 H         1 <0>         0.0000
     20 H6         -6.5788   -6.2336    2.5948 H         1 <0>         0.0000
     21 H7         -6.4171   -4.6172    3.2846 H         1 <0>         0.0000
     22 H8         -7.8175   -5.0034    2.2586 H         1 <0>         0.0000
     23 H9         -2.4915   -4.5273   -1.1541 H         1 <0>         0.0000
@<TRIPOS>BOND
     1    1    2 1
     2    1    3 2
     3    1   15 1
     4    2    5 2
     5    2   16 1
     6    3   13 1
     7    3   17 1
     8    4    6 2
     9    4   14 1
    10    4   18 1
    11    5    8 1
    12    5   13 1
    13    6    9 1
    14    6   10 1
    15    7   10 2
    16    7   12 1
    17    7   14 1
    18    8   11 2
    19    8   19 1
    20    9   20 1
    21    9   21 1
    22    9   22 1
    23   11   12 1
    24   12   23 1
