@<TRIPOS>MOLECULE
*****
   31    34     0     0     0
SMALL
NO_CHARGES

@<TRIPOS>ATOM
      1 C1         -0.0175    4.2041    1.9416 C.ar      1 <0>         0.0000
      2 C2         -0.3488    5.4291    2.4863 C.ar      1 <0>         0.0000
      3 C3          1.9330   -2.7384    0.9497 C.2       1 <0>         0.0000
      4 C4          1.9275   -2.7840   -0.4194 C.2       1 <0>         0.0000
      5 C5          1.5559   -1.5339   -1.0156 C.2       1 <0>         0.0000
      6 C6         -0.0335    4.1046    0.5389 C.ar      1 <0>         0.0000
      7 C7          1.2767   -0.5585   -0.0747 C.2       1 <0>         0.0000
      8 C8         -0.6745    6.4771    1.6064 C.ar      1 <0>         0.0000
      9 C9          0.3107    2.8223   -0.1053 C.2       1 <0>         0.0000
     10 C10         0.8795    0.8063   -0.2793 C.2       1 <0>         0.0000
     11 C11         1.7711   -3.7734   -2.5209 C.3       1 <0>         0.0000
     12 C12         2.1190   -2.4131   -3.1026 C.3       1 <0>         0.0000
     13 C13        -1.0498    7.8463    2.1077 C.3       1 <0>         0.0000
     14 N1         -0.3506    5.1322   -0.2600 N.ar      1 <0>         0.0000
     15 N2         -0.6686    6.3100    0.2725 N.ar      1 <0>         0.0000
     16 N3          0.6496    1.7130    0.6418 N.2       1 <0>         0.0000
     17 N4          0.3239    2.6330   -1.4088 N.2       1 <0>         0.0000
     18 O1          0.7046    1.2804   -1.5327 O.3       1 <0>         0.0000
     19 O2          2.2474   -3.8860   -1.1671 O.3       1 <0>         0.0000
     20 O3          1.4808   -1.3546   -2.3589 O.3       1 <0>         0.0000
     21 S1          1.4850   -1.1765    1.5501 S.3       1 <0>         0.0000
     22 H1          0.2468    3.3424    2.5451 H         1 <0>         0.0000
     23 H2         -0.3598    5.5879    3.5618 H         1 <0>         0.0000
     24 H3          2.1731   -3.5460    1.6284 H         1 <0>         0.0000
     25 H4          0.6856   -3.9317   -2.5403 H         1 <0>         0.0000
     26 H5          2.2628   -4.5700   -3.0824 H         1 <0>         0.0000
     27 H6          3.2038   -2.2555   -3.0877 H         1 <0>         0.0000
     28 H7          1.7526   -2.3193   -4.1263 H         1 <0>         0.0000
     29 H8         -0.2463    8.2741    2.7172 H         1 <0>         0.0000
     30 H9         -1.2435    8.5082    1.2622 H         1 <0>         0.0000
     31 H10        -1.9476    7.8004    2.7342 H         1 <0>         0.0000
@<TRIPOS>BOND
     1    1    2 ar
     2    1    6 ar
     3    1   22 1
     4    2    8 ar
     5    2   23 1
     6    3    4 2
     7    3   21 1
     8    3   24 1
     9    4    5 1
    10    4   19 1
    11    5    7 2
    12    5   20 1
    13    6    9 1
    14    6   14 ar
    15    7   10 1
    16    7   21 1
    17    8   13 1
    18    8   15 ar
    19    9   16 1
    20    9   17 2
    21   10   16 2
    22   10   18 1
    23   11   12 1
    24   11   19 1
    25   11   25 1
    26   11   26 1
    27   12   20 1
    28   12   27 1
    29   12   28 1
    30   13   29 1
    31   13   30 1
    32   13   31 1
    33   14   15 ar
    34   17   18 1
