@<TRIPOS>MOLECULE
*****
   33    35     0     0     0
SMALL
NO_CHARGES

@<TRIPOS>ATOM
      1 C1          0.8616   -2.2015    6.7926 C.1       1 <0>         0.0000
      2 C2          7.4315   -2.9127    6.2122 C.ar      1 <0>         0.0000
      3 C3          6.6623   -2.4310    5.1468 C.ar      1 <0>         0.0000
      4 C4          6.8080   -3.2505    7.4195 C.ar      1 <0>         0.0000
      5 C5          5.2815   -2.2817    5.2693 C.ar      1 <0>         0.0000
      6 C6          5.4303   -3.1042    7.5494 C.ar      1 <0>         0.0000
      7 C7          0.3093   -0.0031    0.7681 C.ar      1 <0>         0.0000
      8 C8         -0.1867   -0.3725    2.0153 C.ar      1 <0>         0.0000
      9 C9          2.6009   -0.5417    1.3867 C.ar      1 <0>         0.0000
     10 C10         4.6368   -2.6179    6.4807 C.ar      1 <0>         0.0000
     11 C11         1.6893   -0.0805    0.4390 C.ar      1 <0>         0.0000
     12 C12         2.1275   -0.9214    2.6541 C.ar      1 <0>         0.0000
     13 C13         0.7451   -0.8327    2.9520 C.ar      1 <0>         0.0000
     14 C14         1.9115   -1.6091    4.6939 C.2       1 <0>         0.0000
     15 C15         3.2116   -2.5152    6.7531 C.2       1 <0>         0.0000
     16 C16         2.0988   -2.1147    6.0558 C.2       1 <0>         0.0000
     17 C17         2.1449    0.3414   -0.9400 C.3       1 <0>         0.0000
     18 N1         -0.1706   -2.2483    7.3347 N.1       1 <0>         0.0000
     19 N2          2.8192   -1.4045    3.7513 N.2       1 <0>         0.0000
     20 N3          0.6358   -1.2763    4.2563 N.pl3     1 <0>         0.0000
     21 H1          8.5074   -3.0245    6.1039 H         1 <0>         0.0000
     22 H2          7.1444   -2.1682    4.2086 H         1 <0>         0.0000
     23 H3          7.3950   -3.6255    8.2535 H         1 <0>         0.0000
     24 H4          4.6913   -1.9086    4.4419 H         1 <0>         0.0000
     25 H5          4.9519   -3.3683    8.4898 H         1 <0>         0.0000
     26 H6         -0.3854    0.3595    0.0138 H         1 <0>         0.0000
     27 H7         -1.2472   -0.3036    2.2414 H         1 <0>         0.0000
     28 H8          3.6615   -0.6104    1.1597 H         1 <0>         0.0000
     29 H9          2.9676   -2.8368    7.7634 H         1 <0>         0.0000
     30 H10         1.8964    1.3907   -1.1361 H         1 <0>         0.0000
     31 H11         3.2261    0.2272   -1.0553 H         1 <0>         0.0000
     32 H12         1.6600   -0.2582   -1.7188 H         1 <0>         0.0000
     33 H13        -0.2127   -1.3511    4.8045 H         1 <0>         0.0000
@<TRIPOS>BOND
     1    1   16 1
     2    1   18 3
     3    2    4 ar
     4    2    3 ar
     5    2   21 1
     6    3    5 ar
     7    3   22 1
     8    4    6 ar
     9    4   23 1
    10    5   10 ar
    11    5   24 1
    12    6   10 ar
    13    6   25 1
    14    7    8 ar
    15    7   11 ar
    16    7   26 1
    17    8   13 ar
    18    8   27 1
    19    9   11 ar
    20    9   12 ar
    21    9   28 1
    22   10   15 1
    23   11   17 1
    24   12   13 ar
    25   12   19 1
    26   13   20 1
    27   14   16 1
    28   14   19 2
    29   14   20 1
    30   15   16 2
    31   15   29 1
    32   17   30 1
    33   17   31 1
    34   17   32 1
    35   20   33 1
