@<TRIPOS>MOLECULE
*****
   27    28     0     0     0
SMALL
NO_CHARGES

@<TRIPOS>ATOM
      1 C1          1.6667   -8.1331   -4.3519 C.1       1 <0>         0.0000
      2 C2          2.1635   -0.5458    0.0597 C.ar      1 <0>         0.0000
      3 C3          2.5351   -2.0404    1.9248 C.ar      1 <0>         0.0000
      4 C4          1.0940    0.0454    0.7373 C.ar      1 <0>         0.0000
      5 C5          1.4677   -1.4580    2.6133 C.ar      1 <0>         0.0000
      6 C6          1.8680   -7.0115   -3.4935 C.ar      1 <0>         0.0000
      7 C7          2.8934   -1.5923    0.6441 C.ar      1 <0>         0.0000
      8 C8          0.7911   -6.4107   -2.7974 C.ar      1 <0>         0.0000
      9 C9          1.0299   -5.3196   -1.9708 C.ar      1 <0>         0.0000
     10 C10         0.7543   -0.4210    2.0089 C.ar      1 <0>         0.0000
     11 C11         2.3626   -4.8379   -1.8508 C.ar      1 <0>         0.0000
     12 C12         3.1398   -6.4388   -3.2883 C.ar      1 <0>         0.0000
     13 C13         4.0039   -2.2514   -0.1052 C.2       1 <0>         0.0000
     14 N1          1.4986   -9.0492   -5.0523 N.1       1 <0>         0.0000
     15 N2          3.3780   -5.4071   -2.5093 N.ar      1 <0>         0.0000
     16 N3          3.8759   -3.2628   -0.8903 N.2       1 <0>         0.0000
     17 N4          2.6158   -3.7633   -1.0405 N.pl3     1 <0>         0.0000
     18 Cl1        -0.8029   -7.0491   -2.9909 Cl        1 <0>         0.0000
     19 Cl2        -0.2560   -4.5369   -1.0873 Cl        1 <0>         0.0000
     20 Cl3         4.5164   -7.1243   -4.1121 Cl        1 <0>         0.0000
     21 Br1        -0.7221    0.3693    2.9363 Br        1 <0>         0.0000
     22 H1          2.4279   -0.1926   -0.9336 H         1 <0>         0.0000
     23 H2          3.0894   -2.8533    2.3867 H         1 <0>         0.0000
     24 H3          0.5319    0.8529    0.2798 H         1 <0>         0.0000
     25 H4          1.1939   -1.8097    3.6026 H         1 <0>         0.0000
     26 H5          5.0204   -1.8742   -0.0055 H         1 <0>         0.0000
     27 H6          1.8355   -3.3380   -0.5438 H         1 <0>         0.0000
@<TRIPOS>BOND
     1    1    6 1
     2    1   14 3
     3    2    4 ar
     4    2    7 ar
     5    2   22 1
     6    3    5 ar
     7    3    7 ar
     8    3   23 1
     9    4   10 ar
    10    4   24 1
    11    5   10 ar
    12    5   25 1
    13    6    8 ar
    14    6   12 ar
    15    7   13 1
    16    8    9 ar
    17    8   18 1
    18    9   11 ar
    19    9   19 1
    20   10   21 1
    21   11   15 ar
    22   11   17 1
    23   12   15 ar
    24   12   20 1
    25   13   16 2
    26   13   26 1
    27   16   17 1
    28   17   27 1
