@<TRIPOS>MOLECULE
*****
   44    46     0     0     0
SMALL
NO_CHARGES

@<TRIPOS>ATOM
      1 C1          6.3755    0.0253    0.9866 C.2       1 <0>         0.0000
      2 C2          4.1468   -0.4982    0.1682 C.2       1 <0>         0.0000
      3 C3          5.2768   -0.8804    0.8626 C.2       1 <0>         0.0000
      4 C4          6.3286    1.2597    0.3964 C.2       1 <0>         0.0000
      5 C5          4.0546    0.8106   -0.4449 C.2       1 <0>         0.0000
      6 C6         -2.3156    1.5089    0.0022 C.2       1 <0>         0.0000
      7 C7          3.0249   -1.4781   -0.0862 C.2       1 <0>         0.0000
      8 C8         -0.4329   -1.4916   -0.3164 C.3       1 <0>         0.0000
      9 C9          0.0800    0.1409    1.5454 C.3       1 <0>         0.0000
     10 C10         0.7362   -2.2041    0.3804 C.3       1 <0>         0.0000
     11 C11         1.5891   -0.1497    1.4798 C.3       1 <0>         0.0000
     12 C12        -0.2000    1.0385   -0.8310 C.3       1 <0>         0.0000
     13 C13        -0.6073   -0.0454    0.1848 C.3       1 <0>         0.0000
     14 C14         5.3802   -2.2323    1.5269 C.3       1 <0>         0.0000
     15 C15         7.4362    2.2727    0.4380 C.3       1 <0>         0.0000
     16 C16        -1.2491    3.2998   -1.3052 C.3       1 <0>         0.0000
     17 N1          5.1965    1.6067   -0.2903 N.am      1 <0>         0.0000
     18 N2         -1.1813    2.0719   -0.5368 N.am      1 <0>         0.0000
     19 N3          1.8520   -1.2795    0.5800 N.am      1 <0>         0.0000
     20 O1          3.0767    1.2673   -1.0587 O.2       1 <0>         0.0000
     21 O2         -3.4060    2.0210    0.1580 O.2       1 <0>         0.0000
     22 O3          3.2138   -2.4361   -0.8430 O.2       1 <0>         0.0000
     23 O4         -2.0296    0.2169    0.3773 O.3       1 <0>         0.0000
     24 H1          7.2635   -0.2682    1.5355 H         1 <0>         0.0000
     25 H2         -0.2686   -1.4925   -1.3972 H         1 <0>         0.0000
     26 H3         -1.3618   -2.0368   -0.1251 H         1 <0>         0.0000
     27 H4         -0.4154   -0.5216    2.2615 H         1 <0>         0.0000
     28 H5         -0.0737    1.1641    1.9000 H         1 <0>         0.0000
     29 H6          0.4270   -2.5928    1.3581 H         1 <0>         0.0000
     30 H7          1.0972   -3.0413   -0.2147 H         1 <0>         0.0000
     31 H8          2.1121    0.7294    1.1080 H         1 <0>         0.0000
     32 H9          1.9658   -0.3652    2.4886 H         1 <0>         0.0000
     33 H10         0.8276    1.3829   -0.7070 H         1 <0>         0.0000
     34 H11        -0.3095    0.6748   -1.8639 H         1 <0>         0.0000
     35 H12         4.9597   -2.1859    2.5390 H         1 <0>         0.0000
     36 H13         6.4245   -2.5421    1.6196 H         1 <0>         0.0000
     37 H14         4.8370   -2.9942    0.9671 H         1 <0>         0.0000
     38 H15         7.7944    2.5020   -0.5722 H         1 <0>         0.0000
     39 H16         8.2779    1.8962    1.0212 H         1 <0>         0.0000
     40 H17         7.0956    3.2101    0.8927 H         1 <0>         0.0000
     41 H18        -0.3279    3.8747   -1.1705 H         1 <0>         0.0000
     42 H19        -2.0978    3.8845   -0.9480 H         1 <0>         0.0000
     43 H20        -1.3835    3.0972   -2.3773 H         1 <0>         0.0000
     44 H21         5.1297    2.5166   -0.7374 H         1 <0>         0.0000
@<TRIPOS>BOND
     1    1    3 1
     2    1    4 2
     3    1   24 1
     4    2    3 2
     5    2    5 1
     6    2    7 1
     7    3   14 1
     8    4   15 1
     9    4   17 1
    10    5   17 am
    11    5   20 2
    12    6   18 am
    13    6   21 2
    14    6   23 1
    15    7   19 am
    16    7   22 2
    17    8   10 1
    18    8   13 1
    19    8   25 1
    20    8   26 1
    21    9   11 1
    22    9   13 1
    23    9   27 1
    24    9   28 1
    25   10   19 1
    26   10   29 1
    27   10   30 1
    28   11   19 1
    29   11   31 1
    30   11   32 1
    31   12   13 1
    32   12   18 1
    33   12   33 1
    34   12   34 1
    35   13   23 1
    36   14   35 1
    37   14   36 1
    38   14   37 1
    39   15   38 1
    40   15   39 1
    41   15   40 1
    42   16   18 1
    43   16   41 1
    44   16   42 1
    45   16   43 1
    46   17   44 1
