@<TRIPOS>MOLECULE
*****
   30    31     0     0     0
SMALL
NO_CHARGES

@<TRIPOS>ATOM
      1 C1         -3.6951   -3.5785   -0.3516 C.ar      1 <0>         0.0000
      2 C2         -3.1338   -2.3392   -0.0486 C.ar      1 <0>         0.0000
      3 C3         -3.0638   -4.4643   -1.2314 C.ar      1 <0>         0.0000
      4 C4         -1.2588   -2.8392   -1.5208 C.ar      1 <0>         0.0000
      5 C5          3.5801    1.4201   -2.3449 C.2       1 <0>         0.0000
      6 C6          1.5099    1.3804   -1.0365 C.2       1 <0>         0.0000
      7 C7         -1.9105   -1.9636   -0.6333 C.ar      1 <0>         0.0000
      8 C8          2.3777    0.7651   -1.9245 C.2       1 <0>         0.0000
      9 C9         -1.8503   -4.0675   -1.7985 C.ar      1 <0>         0.0000
     10 C10         3.8724    2.6573   -1.8684 C.2       1 <0>         0.0000
     11 C11         1.8444    2.7069   -0.5385 C.2       1 <0>         0.0000
     12 C12         0.2616    0.8311   -0.5298 C.2       1 <0>         0.0000
     13 C13         5.0793    3.4706   -2.2072 C.3       1 <0>         0.0000
     14 N1         -0.1889   -0.3326   -0.8649 N.2       1 <0>         0.0000
     15 N2         -1.3592   -0.7250   -0.3246 N.pl3     1 <0>         0.0000
     16 O1          1.1934    3.3758    0.2395 O.2       1 <0>         0.0000
     17 O2          3.0475    3.2833   -1.0023 O.3       1 <0>         0.0000
     18 O3          2.0889   -0.4679   -2.4012 O.3       1 <0>         0.0000
     19 Cl1        -1.0314   -5.1612   -2.9101 Cl        1 <0>         0.0000
     20 H1         -4.6402   -3.8621    0.1037 H         1 <0>         0.0000
     21 H2         -3.6391   -1.6633    0.6378 H         1 <0>         0.0000
     22 H3         -3.4971   -5.4295   -1.4698 H         1 <0>         0.0000
     23 H4         -0.3175   -2.5467   -1.9688 H         1 <0>         0.0000
     24 H5          4.2614    0.9396   -3.0406 H         1 <0>         0.0000
     25 H6         -0.2778    1.4827    0.1660 H         1 <0>         0.0000
     26 H7          4.7787    4.4239   -2.6544 H         1 <0>         0.0000
     27 H8          5.7250    2.9363   -2.9066 H         1 <0>         0.0000
     28 H9          5.6472    3.6996   -1.2993 H         1 <0>         0.0000
     29 H10        -1.8544   -0.1128    0.3231 H         1 <0>         0.0000
     30 H11         2.7935   -0.7514   -3.0072 H         1 <0>         0.0000
@<TRIPOS>BOND
     1    1    2 ar
     2    1    3 ar
     3    1   20 1
     4    2    7 ar
     5    2   21 1
     6    3    9 ar
     7    3   22 1
     8    4    7 ar
     9    4    9 ar
    10    4   23 1
    11    5    8 1
    12    5   10 2
    13    5   24 1
    14    6    8 2
    15    6   11 1
    16    6   12 1
    17    7   15 1
    18    8   18 1
    19    9   19 1
    20   10   13 1
    21   10   17 1
    22   11   16 2
    23   11   17 1
    24   12   14 2
    25   12   25 1
    26   13   26 1
    27   13   27 1
    28   13   28 1
    29   14   15 1
    30   15   29 1
    31   18   30 1
