@<TRIPOS>MOLECULE
*****
   37    39     0     0     0
SMALL
NO_CHARGES

@<TRIPOS>ATOM
      1 C1          0.5178   -4.4649    0.3473 C.ar      1 <0>         0.0000
      2 C2          0.3227   -3.2564   -0.3180 C.ar      1 <0>         0.0000
      3 C3          1.5095   -4.5181    1.3311 C.ar      1 <0>         0.0000
      4 C4         -0.7141   -1.8734   -3.9317 C.2       1 <0>         0.0000
      5 C5          1.1315   -2.1609   -0.0106 C.ar      1 <0>         0.0000
      6 C6         -0.4360   -0.9124   -3.0151 C.2       1 <0>         0.0000
      7 C7          2.1026   -2.3176    1.0036 C.ar      1 <0>         0.0000
      8 C8         -1.4421    0.0623   -2.6140 C.2       1 <0>         0.0000
      9 C9         -2.9765   -1.0829   -4.2128 C.2       1 <0>         0.0000
     10 C10         1.2141    0.3055    0.1215 C.3       1 <0>         0.0000
     11 C11         2.6786    0.3934    0.5313 C.3       1 <0>         0.0000
     12 C12        -2.2363   -3.0145   -5.5153 C.3       1 <0>         0.0000
     13 C13        -3.7801    0.8238   -2.9541 C.3       1 <0>         0.0000
     14 N1          2.2716   -3.4716    1.6605 N.ar      1 <0>         0.0000
     15 N2         -1.9367   -1.9769   -4.5194 N.am      1 <0>         0.0000
     16 N3         -2.6835   -0.1035   -3.2719 N.am      1 <0>         0.0000
     17 N4          0.9470   -0.9098   -0.6673 N.pl3     1 <0>         0.0000
     18 O1         -1.2714    0.9444   -1.7817 O.2       1 <0>         0.0000
     19 O2         -4.0700   -1.1818   -4.7510 O.2       1 <0>         0.0000
     20 O3          1.8797   -2.0518   -2.7817 O.2       1 <0>         0.0000
     21 O4          1.7679    0.4920   -2.6294 O.2       1 <0>         0.0000
     22 S1          3.1858   -1.0318    1.5727 S.3       1 <0>         0.0000
     23 S2          1.2101   -0.8266   -2.3389 S.o2      1 <0>         0.0000
     24 H1         -0.0886   -5.3372    0.1234 H         1 <0>         0.0000
     25 H2         -0.4501   -3.1513   -1.0739 H         1 <0>         0.0000
     26 H3          1.6990   -5.4378    1.8819 H         1 <0>         0.0000
     27 H4          0.0396   -2.5997   -4.2190 H         1 <0>         0.0000
     28 H5          0.5580    0.2638    0.9951 H         1 <0>         0.0000
     29 H6          0.9265    1.1689   -0.4757 H         1 <0>         0.0000
     30 H7          3.3111    0.4524   -0.3564 H         1 <0>         0.0000
     31 H8          2.8498    1.2841    1.1424 H         1 <0>         0.0000
     32 H9         -3.0728   -3.6271   -5.1749 H         1 <0>         0.0000
     33 H10        -1.3494   -3.6348   -5.6448 H         1 <0>         0.0000
     34 H11        -2.5077   -2.5518   -6.4659 H         1 <0>         0.0000
     35 H12        -4.0979    1.3404   -3.8616 H         1 <0>         0.0000
     36 H13        -3.4073    1.5341   -2.2201 H         1 <0>         0.0000
     37 H14        -4.6287    0.2669   -2.5520 H         1 <0>         0.0000
@<TRIPOS>BOND
     1    1    2 ar
     2    1    3 ar
     3    1   24 1
     4    2    5 ar
     5    2   25 1
     6    3   14 ar
     7    3   26 1
     8    4    6 2
     9    4   15 1
    10    4   27 1
    11    5    7 ar
    12    5   17 1
    13    6    8 1
    14    6   23 1
    15    7   14 ar
    16    7   22 1
    17    8   16 am
    18    8   18 2
    19    9   15 am
    20    9   16 am
    21    9   19 2
    22   10   11 1
    23   10   17 1
    24   10   28 1
    25   10   29 1
    26   11   22 1
    27   11   30 1
    28   11   31 1
    29   12   15 1
    30   12   32 1
    31   12   33 1
    32   12   34 1
    33   13   16 1
    34   13   35 1
    35   13   36 1
    36   13   37 1
    37   17   23 1
    38   20   23 2
    39   21   23 2
