@<TRIPOS>MOLECULE
*****
   24    25     0     0     0
SMALL
NO_CHARGES

@<TRIPOS>ATOM
      1 C1          0.4560   -1.7895    1.2300 C.ar      1 <0>         0.0000
      2 C2          0.5088   -0.5812    0.5222 C.ar      1 <0>         0.0000
      3 C3          1.5854   -2.2589    1.8898 C.ar      1 <0>         0.0000
      4 C4          1.6967    0.1499    0.4807 C.ar      1 <0>         0.0000
      5 C5          2.8016   -1.5420    1.8657 C.ar      1 <0>         0.0000
      6 C6          2.8244   -0.3325    1.1477 C.ar      1 <0>         0.0000
      7 C7          6.1131   -5.1585    5.4477 C.2       1 <0>         0.0000
      8 C8          4.9737   -4.5951    4.7745 C.2       1 <0>         0.0000
      9 C9          3.9753   -2.0587    2.5763 C.2       1 <0>         0.0000
     10 N1          5.6959   -6.0644    6.2918 N.2       1 <0>         0.0000
     11 N2          3.8818   -5.1687    5.2126 N.2       1 <0>         0.0000
     12 N3          3.9227   -3.1854    3.1945 N.2       1 <0>         0.0000
     13 N4          7.4366   -4.7401    5.2952 N.pl3     1 <0>         0.0000
     14 N5          5.0676   -3.6177    3.7987 N.pl3     1 <0>         0.0000
     15 O1          4.3181   -6.0854    6.1618 O.3       1 <0>         0.0000
     16 Br1         4.4247    0.7385    1.0362 Br        1 <0>         0.0000
     17 H1         -0.4674   -2.3607    1.2662 H         1 <0>         0.0000
     18 H2         -0.3694   -0.2059    0.0042 H         1 <0>         0.0000
     19 H3          1.5593   -3.1910    2.4452 H         1 <0>         0.0000
     20 H4          1.7497    1.0867   -0.0639 H         1 <0>         0.0000
     21 H5          4.8876   -1.4537    2.5590 H         1 <0>         0.0000
     22 H6          7.7542   -4.8066    4.3308 H         1 <0>         0.0000
     23 H7          8.0634   -5.2642    5.9006 H         1 <0>         0.0000
     24 H8          5.8282   -2.9478    3.9345 H         1 <0>         0.0000
@<TRIPOS>BOND
     1    1    2 ar
     2    1    3 ar
     3    1   17 1
     4    2    4 ar
     5    2   18 1
     6    3    5 ar
     7    3   19 1
     8    4    6 ar
     9    4   20 1
    10    5    6 ar
    11    5    9 1
    12    6   16 1
    13    7    8 1
    14    7   10 2
    15    7   13 1
    16    8   11 2
    17    8   14 1
    18    9   12 2
    19    9   21 1
    20   10   15 1
    21   11   15 1
    22   12   14 1
    23   13   22 1
    24   13   23 1
    25   14   24 1
