@<TRIPOS>MOLECULE
*****
   27    28     0     0     0
SMALL
NO_CHARGES

@<TRIPOS>ATOM
      1 C1         -4.0231    1.9704    1.2828 C.1       1 <0>         0.0000
      2 C2          2.5447   -1.3009    0.0684 C.ar      1 <0>         0.0000
      3 C3          1.2215   -0.9517    0.3470 C.ar      1 <0>         0.0000
      4 C4          3.4407   -1.5901    1.1006 C.ar      1 <0>         0.0000
      5 C5          1.6645   -1.2099    2.7183 C.ar      1 <0>         0.0000
      6 C6         -3.0610    2.5616    0.4217 C.2       1 <0>         0.0000
      7 C7          0.7707   -0.8931    1.6798 C.ar      1 <0>         0.0000
      8 C8          2.9837   -1.5438    2.4206 C.ar      1 <0>         0.0000
      9 C9         -1.7738    2.1629    0.1460 C.2       1 <0>         0.0000
     10 C10        -2.2460    3.9698   -0.9897 C.2       1 <0>         0.0000
     11 C11        -0.6233   -0.5570    2.0426 C.2       1 <0>         0.0000
     12 C12        -1.9359    5.0703   -1.9385 C.3       1 <0>         0.0000
     13 N1         -4.8365    1.5068    1.9783 N.1       1 <0>         0.0000
     14 N2         -3.3242    3.7240   -0.3283 N.2       1 <0>         0.0000
     15 N3         -1.4125    0.3225    1.5302 N.2       1 <0>         0.0000
     16 N4         -0.9694    1.1111    0.5067 N.pl3     1 <0>         0.0000
     17 O1         -1.2342    3.0365   -0.7465 O.3       1 <0>         0.0000
     18 Cl1         4.0898   -1.9217    3.7275 Cl        1 <0>         0.0000
     19 H1          2.8827   -1.3578   -0.9626 H         1 <0>         0.0000
     20 H2          0.5292   -0.7795   -0.4713 H         1 <0>         0.0000
     21 H3          4.4707   -1.8584    0.8885 H         1 <0>         0.0000
     22 H4          1.3305   -1.1877    3.7516 H         1 <0>         0.0000
     23 H5         -1.0629   -1.0985    2.8786 H         1 <0>         0.0000
     24 H6         -1.0907    5.6691   -1.5834 H         1 <0>         0.0000
     25 H7         -1.6781    4.6762   -2.9269 H         1 <0>         0.0000
     26 H8         -2.8144    5.7100   -2.0270 H         1 <0>         0.0000
     27 H9          0.0303    1.2233    0.3351 H         1 <0>         0.0000
@<TRIPOS>BOND
     1    1    6 1
     2    1   13 3
     3    2    3 ar
     4    2    4 ar
     5    2   19 1
     6    3    7 ar
     7    3   20 1
     8    4    8 ar
     9    4   21 1
    10    5    7 ar
    11    5    8 ar
    12    5   22 1
    13    6    9 2
    14    6   14 1
    15    7   11 1
    16    8   18 1
    17    9   16 1
    18    9   17 1
    19   10   12 1
    20   10   14 2
    21   10   17 1
    22   11   15 2
    23   11   23 1
    24   12   24 1
    25   12   25 1
    26   12   26 1
    27   15   16 1
    28   16   27 1
