@<TRIPOS>MOLECULE
*****
   15    15     0     0     0
SMALL
NO_CHARGES

@<TRIPOS>ATOM
      1 C1          0.1194   -0.1908    1.0301 C.ar      1 <0>         0.0000
      2 C2          1.5975   -1.3829    2.5364 C.ar      1 <0>         0.0000
      3 C3         -0.9371   -0.8984    1.6056 C.ar      1 <0>         0.0000
      4 C4          1.4006   -0.4519    1.5177 C.ar      1 <0>         0.0000
      5 C5          0.4543   -2.0263    3.0303 C.ar      1 <0>         0.0000
      6 C6          2.1619   -3.4309    4.8063 C.3       1 <0>         0.0000
      7 N1         -0.7833   -1.7979    2.5843 N.ar      1 <0>         0.0000
      8 F1          2.7098   -2.2860    5.2756 F         1 <0>         0.0000
      9 F2          2.9581   -3.8573    3.7984 F         1 <0>         0.0000
     10 F3          2.2125   -4.3482    5.7903 F         1 <0>         0.0000
     11 S1          0.4135   -3.2605    4.3313 S.3       1 <0>         0.0000
     12 Cl1         2.7759    0.3917    0.8503 Cl        1 <0>         0.0000
     13 H1         -0.0503    0.5302    0.2382 H         1 <0>         0.0000
     14 H2          2.5928   -1.5815    2.9100 H         1 <0>         0.0000
     15 H3         -1.9567   -0.7341    1.2633 H         1 <0>         0.0000
@<TRIPOS>BOND
     1    1    3 ar
     2    1    4 ar
     3    1   13 1
     4    2    4 ar
     5    2    5 ar
     6    2   14 1
     7    3    7 ar
     8    3   15 1
     9    4   12 1
    10    5    7 ar
    11    5   11 1
    12    6    8 1
    13    6    9 1
    14    6   10 1
    15    6   11 1
