@<TRIPOS>MOLECULE
*****
   19    19     0     0     0
SMALL
NO_CHARGES

@<TRIPOS>ATOM
      1 C1         -0.3302    0.0686   -0.2161 C.1       1 <0>         0.0000
      2 C2          1.8300   -1.0941   -0.0710 C.ar      1 <0>         0.0000
      3 C3          0.6673   -0.4561    1.9686 C.ar      1 <0>         0.0000
      4 C4          0.7341   -0.4977    0.5642 C.ar      1 <0>         0.0000
      5 C5          2.8596   -1.6135    0.7077 C.ar      1 <0>         0.0000
      6 C6          2.8242   -1.6114    2.1127 C.ar      1 <0>         0.0000
      7 C7          1.6963   -1.0159    2.7060 C.ar      1 <0>         0.0000
      8 C8          4.6691   -1.4040    3.5987 C.3       1 <0>         0.0000
      9 N1         -1.1952    0.5311   -0.8442 N.1       1 <0>         0.0000
     10 N2          4.0312   -2.1680    0.0082 N.pl3     1 <0>         0.0000
     11 O1          5.1430   -1.9181    0.4782 O.3       1 <0>         0.0000
     12 O2          3.8153   -2.8143   -1.0198 O.2       1 <0>         0.0000
     13 O3          3.7580   -2.2473    2.8537 O.3       1 <0>         0.0000
     14 F1          1.6193   -1.0106    4.0514 F         1 <0>         0.0000
     15 H1          1.8930   -1.1466   -1.1518 H         1 <0>         0.0000
     16 H2         -0.1808   -0.0126    2.4797 H         1 <0>         0.0000
     17 H3          5.3069   -2.0891    4.1563 H         1 <0>         0.0000
     18 H4          4.1208   -0.7585    4.2904 H         1 <0>         0.0000
     19 H5          5.2712   -0.8140    2.9031 H         1 <0>         0.0000
@<TRIPOS>BOND
     1    1    4 1
     2    1    9 3
     3    2    4 ar
     4    2    5 ar
     5    2   15 1
     6    3    4 ar
     7    3    7 ar
     8    3   16 1
     9    5    6 ar
    10    5   10 1
    11    6    7 ar
    12    6   13 1
    13    7   14 1
    14    8   13 1
    15    8   17 1
    16    8   18 1
    17    8   19 1
    18   10   11 1
    19   10   12 2
