@<TRIPOS>MOLECULE
*****
   35    37     0     0     0
SMALL
NO_CHARGES

@<TRIPOS>ATOM
      1 C1          6.8130   -9.7604   -2.3408 C.1       1 <0>         0.0000
      2 C2          5.9755   -7.4525   -2.1761 C.ar      1 <0>         0.0000
      3 C3          4.5924   -9.2947   -1.3830 C.ar      1 <0>         0.0000
      4 C4          4.9849   -6.5523   -1.7908 C.ar      1 <0>         0.0000
      5 C5          3.5996   -8.3877   -1.0233 C.ar      1 <0>         0.0000
      6 C6          0.2673   -1.6812    0.2225 C.ar      1 <0>         0.0000
      7 C7          1.1928   -1.9649    1.2200 C.ar      1 <0>         0.0000
      8 C8          1.0822   -3.5391   -1.0704 C.ar      1 <0>         0.0000
      9 C9          5.7869   -8.8288   -1.9615 C.ar      1 <0>         0.0000
     10 C10         3.7961   -7.0117   -1.2046 C.ar      1 <0>         0.0000
     11 C11         0.1989   -2.4680   -0.9408 C.ar      1 <0>         0.0000
     12 C12         2.0190   -3.8489   -0.0695 C.ar      1 <0>         0.0000
     13 C13         2.0685   -3.0473    1.0851 C.ar      1 <0>         0.0000
     14 C14         2.6575   -6.0816   -0.8804 C.2       1 <0>         0.0000
     15 C15         4.1500   -4.7733    0.6395 C.3       1 <0>         0.0000
     16 C16         3.6776   -4.4790    2.0576 C.3       1 <0>         0.0000
     17 C17        -0.7986   -2.1473   -2.0309 C.3       1 <0>         0.0000
     18 N1          7.6475  -10.5149   -2.6449 N.1       1 <0>         0.0000
     19 N2          2.9766   -4.8984   -0.2326 N.am      1 <0>         0.0000
     20 O1          1.5202   -6.3761   -1.2391 O.2       1 <0>         0.0000
     21 O2          2.9679   -3.2436    2.1099 O.3       1 <0>         0.0000
     22 H1          6.8909   -7.1007   -2.6417 H         1 <0>         0.0000
     23 H2          4.4493  -10.3599   -1.2302 H         1 <0>         0.0000
     24 H3          5.1281   -5.4893   -1.9628 H         1 <0>         0.0000
     25 H4          2.6590   -8.7356   -0.6078 H         1 <0>         0.0000
     26 H5         -0.4122   -0.8413    0.3481 H         1 <0>         0.0000
     27 H6          1.2554   -1.3656    2.1236 H         1 <0>         0.0000
     28 H7          1.0413   -4.1618   -1.9553 H         1 <0>         0.0000
     29 H8          4.7955   -3.9604    0.2875 H         1 <0>         0.0000
     30 H9          4.7214   -5.6994    0.6344 H         1 <0>         0.0000
     31 H10         3.0325   -5.2936    2.4126 H         1 <0>         0.0000
     32 H11         4.5260   -4.3713    2.7373 H         1 <0>         0.0000
     33 H12        -0.5372   -1.2154   -2.5461 H         1 <0>         0.0000
     34 H13        -0.8399   -2.9424   -2.7801 H         1 <0>         0.0000
     35 H14        -1.8064   -2.0208   -1.6212 H         1 <0>         0.0000
@<TRIPOS>BOND
     1    1    9 1
     2    1   18 3
     3    2    4 ar
     4    2    9 ar
     5    2   22 1
     6    3    5 ar
     7    3    9 ar
     8    3   23 1
     9    4   10 ar
    10    4   24 1
    11    5   10 ar
    12    5   25 1
    13    6    7 ar
    14    6   11 ar
    15    6   26 1
    16    7   13 ar
    17    7   27 1
    18    8   11 ar
    19    8   12 ar
    20    8   28 1
    21   10   14 1
    22   11   17 1
    23   12   13 ar
    24   12   19 1
    25   13   21 1
    26   14   19 am
    27   14   20 2
    28   15   16 1
    29   15   19 1
    30   15   29 1
    31   15   30 1
    32   16   21 1
    33   16   31 1
    34   16   32 1
    35   17   33 1
    36   17   34 1
    37   17   35 1
